$# LS-DYNA Keyword file created by LS-PrePost(R) V4.8.30 - 20Apr2022
$# Created on Jul-18-2024 (15:13:05)
*KEYWORD
*ELEMENT_SHELL
$#   eid     pid      n1      n2      n3      n4      n5      n6      n7      n8
       1       1       1      10      11       2       0       0       0       0
       2       1       2      11      12       3       0       0       0       0
       3       1       3      12      13       4       0       0       0       0
       4       1       4      13      14       5       0       0       0       0
       5       1       5      14      15       6       0       0       0       0
       6       1       6      15      16       7       0       0       0       0
       7       1       7      16      17       8       0       0       0       0
       8       1       8      17      18       9       0       0       0       0
       9       1      10      19      20      11       0       0       0       0
      10       1      11      20      21      12       0       0       0       0
      11       1      12      21      22      13       0       0       0       0
      12       1      13      22      23      14       0       0       0       0
      13       1      14      23      24      15       0       0       0       0
      14       1      15      24      25      16       0       0       0       0
      15       1      16      25      26      17       0       0       0       0
      16       1      17      26      27      18       0       0       0       0
      17       1      19      28      29      20       0       0       0       0
      18       1      20      29      30      21       0       0       0       0
      19       1      21      30      31      22       0       0       0       0
      20       1      22      31      32      23       0       0       0       0
      21       1      23      32      33      24       0       0       0       0
      22       1      24      33      34      25       0       0       0       0
      23       1      25      34      35      26       0       0       0       0
      24       1      26      35      36      27       0       0       0       0
*NODE
$#   nid               x               y               z      tc      rc  
       1             4.0             0.0             0.0       0       0
       2            3.92            0.78             0.0       0       0
       3            3.70            1.53             0.0       0       0
       4            3.33            2.22             0.0       0       0
       5            2.83            2.83             0.0       0       0
       6            2.22            3.33             0.0       0       0
       7            1.53            3.70             0.0       0       0
       8            0.78            3.92             0.0       0       0
       9             0.0             4.0             0.0       0       0
      10            3.25             0.0             0.0       0       0
      11            3.19            0.63             0.0       0       0
      12            3.00            1.24             0.0       0       0
      13            2.70            1.81             0.0       0       0
      14            2.30            2.30             0.0       0       0
      15            1.81            2.70             0.0       0       0
      16            1.24            3.00             0.0       0       0
      17            0.63            3.19             0.0       0       0
      18             0.0            3.25             0.0       0       0
      19             2.5             0.0             0.0       0       0
      20            2.45            0.49             0.0       0       0
      21            2.31            0.96             0.0       0       0
      22            2.08            1.39             0.0       0       0
      23            1.77            1.77             0.0       0       0
      24            1.39            2.08             0.0       0       0
      25            0.96            2.31             0.0       0       0
      26            0.49            2.45             0.0       0       0
      27             0.0             2.5             0.0       0       0
      28            1.75             0.0             0.0       0       0
      29            1.72            0.34             0.0       0       0
      30            1.62            0.67             0.0       0       0
      31            1.46            0.97             0.0       0       0
      32            1.24            1.24             0.0       0       0
      33            0.97            1.46             0.0       0       0
      34            0.67            1.62             0.0       0       0
      35            0.34            1.72             0.0       0       0
      36             0.0            1.75             0.0       0       0
      37             1.0             0.0             0.0       0       0
      38            0.98            0.20             0.0       0       0
      39            0.92            0.38             0.0       0       0
      40            0.83            0.56             0.0       0       0
      41            0.71            0.71             0.0       0       0
      42            0.56            0.83             0.0       0       0
      43            0.38            0.92             0.0       0       0
      44            0.20            0.98             0.0       0       0
      45             0.0             1.0             0.0       0       0
*ELEMENT_SHELL
$#   eid     pid      n1      n2      n3      n4      n5      n6      n7      n8
      25       2      29      28      37      38       0       0       0       0
      26       2      30      29      38      39       0       0       0       0
      27       2      31      30      39      40       0       0       0       0
      28       2      32      31      40      41       0       0       0       0
      29       2      33      32      41      42       0       0       0       0
      30       2      34      33      42      43       0       0       0       0
      31       2      35      34      43      44       0       0       0       0
      32       2      36      35      44      45       0       0       0       0
*SET_SEGMENT_TITLE
SEGM_InnerDiameter
$#     sid       da1       da2       da3       da4    solver      
         1       0.0       0.0       0.0       0.0MECH
$#      n1        n2        n3        n4        a1        a2        a3        a4
        37        38        38        38       0.0       0.0       0.0       0.0
        38        39        39        39       0.0       0.0       0.0       0.0
        39        40        40        40       0.0       0.0       0.0       0.0
        40        41        41        41       0.0       0.0       0.0       0.0
        41        42        42        42       0.0       0.0       0.0       0.0
        42        43        43        43       0.0       0.0       0.0       0.0
        43        44        44        44       0.0       0.0       0.0       0.0
        44        45        45        45       0.0       0.0       0.0       0.0
*END
