$# LS-DYNA Keyword file created by LS-PrePost(R) V4.8.30 - 20Apr2022
$# Created on Jul-19-2024 (12:55:02)
*KEYWORD   
*ELEMENT_SHELL
$#   eid     pid      n1      n2      n3      n4      n5      n6      n7      n8
       1       2       4       2       1       3       0       0       0       0
       2       2       6       4       3       5       0       0       0       0
       3       1       7       8       6       5       0       0       0       0
       4       1       9      10       8       7       0       0       0       0
*NODE
$#   nid               x               y               z      tc      rc  
       1             0.0             0.0             0.0       0       0
       2             0.0             1.0             0.0       0       0
       3             1.0             0.0             0.0       0       0
       4             1.0             1.0             0.0       0       0
       5             2.0             0.0             0.0       0       0
       6             2.0             1.0             0.0       0       0
       7             3.0             0.0             0.0       0       0
       8             3.0             1.0             0.0       0       0
       9             4.0             0.0             0.0       0       0
      10             4.0             1.0             0.0       0       0
*END
