$# LS-DYNA Keyword file created by LS-PrePost(R) V4.8.30 - 20Apr2022
$# Created on Mar-21-2024 (16:18:03)
*KEYWORD
*PARAMETER
$#   prmr1      val1     prmr2      val2     prmr3      val3     prmr4      val4
R shThck  1.5                                                                   
R arctim  30                                                                    
I arcnode 8602
*ELEMENT_SHELL
    3901       1    4302    4303    4694    4693       0       0       0       0
    3902       1    4303    4304    4695    4694       0       0       0       0
    3903       1    4304    4305    4696    4695       0       0       0       0
    3904       1    4305    4306    4697    4696       0       0       0       0
    3905       1    4306    4307    4698    4697       0       0       0       0
    3906       1    4307    4308    4699    4698       0       0       0       0
    3907       1    4308    4309    4700    4699       0       0       0       0
    3908       1    4309    4310    4701    4700       0       0       0       0
    3909       1    4310    4311    4702    4701       0       0       0       0
    3910       1    4311    4312    4703    4702       0       0       0       0
    3911       1    4312    4313    4704    4703       0       0       0       0
    3912       1    4313    4314    4705    4704       0       0       0       0
    3913       1    4314    4315    4706    4705       0       0       0       0
    3914       1    4315    4316    4707    4706       0       0       0       0
    3915       1    4316    4317    4708    4707       0       0       0       0
    3916       1    4317    4318    4709    4708       0       0       0       0
    3917       1    4318    4319    4710    4709       0       0       0       0
    3918       1    4319    4320    4711    4710       0       0       0       0
    3919       1    4320    4321    4712    4711       0       0       0       0
    3920       1    4321    4322    4713    4712       0       0       0       0
    3921       1    4322    4323    4714    4713       0       0       0       0
    3922       1    4323    4324    4715    4714       0       0       0       0
    3923       1    4324    4325    4716    4715       0       0       0       0
    3924       1    4325    4326    4717    4716       0       0       0       0
    3925       1    4326    4327    4718    4717       0       0       0       0
    3926       1    4327    4328    4719    4718       0       0       0       0
    3927       1    4328    4329    4720    4719       0       0       0       0
    3928       1    4329    4330    4721    4720       0       0       0       0
    3929       1    4330    4331    4722    4721       0       0       0       0
    3930       1    4331    4332    4723    4722       0       0       0       0
    3931       1    4332    4333    4724    4723       0       0       0       0
    3932       1    4333    4334    4725    4724       0       0       0       0
    3933       1    4334    4335    4726    4725       0       0       0       0
    3934       1    4335    4336    4727    4726       0       0       0       0
    3935       1    4336    4337    4728    4727       0       0       0       0
    3936       1    4337    4338    4729    4728       0       0       0       0
    3937       1    4338    4339    4730    4729       0       0       0       0
    3938       1    4339    4340    4731    4730       0       0       0       0
    3939       1    4340    4341    4732    4731       0       0       0       0
    3940       1    4341    4342    4733    4732       0       0       0       0
    3941       1    4342    4343    4734    4733       0       0       0       0
    3942       1    4343    4344    4735    4734       0       0       0       0
    3943       1    4344    4345    4736    4735       0       0       0       0
    3944       1    4345    4346    4737    4736       0       0       0       0
    3945       1    4346    4347    4738    4737       0       0       0       0
    3946       1    4347    4348    4739    4738       0       0       0       0
    3947       1    4348    4349    4740    4739       0       0       0       0
    3948       1    4349    4350    4741    4740       0       0       0       0
    3949       1    4350    4351    4742    4741       0       0       0       0
    3950       1    4351    4352    4743    4742       0       0       0       0
    3951       1    4352    4353    4744    4743       0       0       0       0
    3952       1    4353    4354    4745    4744       0       0       0       0
    3953       1    4354    4355    4746    4745       0       0       0       0
    3954       1    4355    4356    4747    4746       0       0       0       0
    3955       1    4356    4357    4748    4747       0       0       0       0
    3956       1    4357    4358    4749    4748       0       0       0       0
    3957       1    4358    4359    4750    4749       0       0       0       0
    3958       1    4359    4360    4751    4750       0       0       0       0
    3959       1    4360    4361    4752    4751       0       0       0       0
    3960       1    4361    4362    4753    4752       0       0       0       0
    3961       1    4362    4363    4754    4753       0       0       0       0
    3962       1    4363    4364    4755    4754       0       0       0       0
    3963       1    4364    4365    4756    4755       0       0       0       0
    3964       1    4365    4366    4757    4756       0       0       0       0
    3965       1    4366    4367    4758    4757       0       0       0       0
    3966       1    4367    4368    4759    4758       0       0       0       0
    3967       1    4368    4369    4760    4759       0       0       0       0
    3968       1    4369    4370    4761    4760       0       0       0       0
    3969       1    4370    4371    4762    4761       0       0       0       0
    3970       1    4371    4372    4763    4762       0       0       0       0
    3971       1    4372    4373    4764    4763       0       0       0       0
    3972       1    4373    4374    4765    4764       0       0       0       0
    3973       1    4374    4375    4766    4765       0       0       0       0
    3974       1    4375    4376    4767    4766       0       0       0       0
    3975       1    4376    4377    4768    4767       0       0       0       0
    3976       1    4377    4378    4769    4768       0       0       0       0
    3977       1    4378    4379    4770    4769       0       0       0       0
    3978       1    4379    4380    4771    4770       0       0       0       0
    3979       1    4380    4381    4772    4771       0       0       0       0
    3980       1    4381    4382    4773    4772       0       0       0       0
    3981       1    4382    4383    4774    4773       0       0       0       0
    3982       1    4383    4384    4775    4774       0       0       0       0
    3983       1    4384    4385    4776    4775       0       0       0       0
    3984       1    4385    4386    4777    4776       0       0       0       0
    3985       1    4386    4387    4778    4777       0       0       0       0
    3986       1    4387    4388    4779    4778       0       0       0       0
    3987       1    4388    4389    4780    4779       0       0       0       0
    3988       1    4389    4390    4781    4780       0       0       0       0
    3989       1    4390    4391    4782    4781       0       0       0       0
    3990       1    4391    4392    4783    4782       0       0       0       0
    3991       1    4392    4393    4784    4783       0       0       0       0
    3992       1    4393    4394    4785    4784       0       0       0       0
    3993       1    4394    4395    4786    4785       0       0       0       0
    3994       1    4395    4396    4787    4786       0       0       0       0
    3995       1    4396    4397    4788    4787       0       0       0       0
    3996       1    4397    4398    4789    4788       0       0       0       0
    3997       1    4398    4399    4790    4789       0       0       0       0
    3998       1    4399    4400    4791    4790       0       0       0       0
    3999       1    4400    4401    4792    4791       0       0       0       0
    4000       1    4401    4402    4793    4792       0       0       0       0
    4001       1    4402    4403    4794    4793       0       0       0       0
    4002       1    4403    4404    4795    4794       0       0       0       0
    4003       1    4404    4405    4796    4795       0       0       0       0
    4004       1    4405    4406    4797    4796       0       0       0       0
    4005       1    4406    4407    4798    4797       0       0       0       0
    4006       1    4407    4408    4799    4798       0       0       0       0
    4007       1    4408    4409    4800    4799       0       0       0       0
    4008       1    4409    4410    4801    4800       0       0       0       0
    4009       1    4410    4411    4802    4801       0       0       0       0
    4010       1    4411    4412    4803    4802       0       0       0       0
    4011       1    4412    4413    4804    4803       0       0       0       0
    4012       1    4413    4414    4805    4804       0       0       0       0
    4013       1    4414    4415    4806    4805       0       0       0       0
    4014       1    4415    4416    4807    4806       0       0       0       0
    4015       1    4416    4417    4808    4807       0       0       0       0
    4016       1    4417    4418    4809    4808       0       0       0       0
    4017       1    4418    4419    4810    4809       0       0       0       0
    4018       1    4419    4420    4811    4810       0       0       0       0
    4019       1    4420    4421    4812    4811       0       0       0       0
    4020       1    4421    4422    4813    4812       0       0       0       0
    4021       1    4422    4423    4814    4813       0       0       0       0
    4022       1    4423    4424    4815    4814       0       0       0       0
    4023       1    4424    4425    4816    4815       0       0       0       0
    4024       1    4425    4426    4817    4816       0       0       0       0
    4025       1    4426    4427    4818    4817       0       0       0       0
    4026       1    4427    4428    4819    4818       0       0       0       0
    4027       1    4428    4429    4820    4819       0       0       0       0
    4028       1    4429    4430    4821    4820       0       0       0       0
    4029       1    4430    4431    4822    4821       0       0       0       0
    4030       1    4431    4432    4823    4822       0       0       0       0
    4031       1    4432    4433    4824    4823       0       0       0       0
    4032       1    4433    4434    4825    4824       0       0       0       0
    4033       1    4434    4435    4826    4825       0       0       0       0
    4034       1    4435    4436    4827    4826       0       0       0       0
    4035       1    4436    4437    4828    4827       0       0       0       0
    4036       1    4437    4438    4829    4828       0       0       0       0
    4037       1    4438    4439    4830    4829       0       0       0       0
    4038       1    4439    4440    4831    4830       0       0       0       0
    4039       1    4440    4441    4832    4831       0       0       0       0
    4040       1    4441    4442    4833    4832       0       0       0       0
    4041       1    4442    4443    4834    4833       0       0       0       0
    4042       1    4443    4444    4835    4834       0       0       0       0
    4043       1    4444    4445    4836    4835       0       0       0       0
    4044       1    4445    4446    4837    4836       0       0       0       0
    4045       1    4446    4447    4838    4837       0       0       0       0
    4046       1    4447    4448    4839    4838       0       0       0       0
    4047       1    4448    4449    4840    4839       0       0       0       0
    4048       1    4449    4450    4841    4840       0       0       0       0
    4049       1    4450    4451    4842    4841       0       0       0       0
    4050       1    4451    4452    4843    4842       0       0       0       0
    4051       1    4452    4453    4844    4843       0       0       0       0
    4052       1    4453    4454    4845    4844       0       0       0       0
    4053       1    4454    4455    4846    4845       0       0       0       0
    4054       1    4455    4456    4847    4846       0       0       0       0
    4055       1    4456    4457    4848    4847       0       0       0       0
    4056       1    4457    4458    4849    4848       0       0       0       0
    4057       1    4458    4459    4850    4849       0       0       0       0
    4058       1    4459    4460    4851    4850       0       0       0       0
    4059       1    4460    4461    4852    4851       0       0       0       0
    4060       1    4461    4462    4853    4852       0       0       0       0
    4061       1    4462    4463    4854    4853       0       0       0       0
    4062       1    4463    4464    4855    4854       0       0       0       0
    4063       1    4464    4465    4856    4855       0       0       0       0
    4064       1    4465    4466    4857    4856       0       0       0       0
    4065       1    4466    4467    4858    4857       0       0       0       0
    4066       1    4467    4468    4859    4858       0       0       0       0
    4067       1    4468    4469    4860    4859       0       0       0       0
    4068       1    4469    4470    4861    4860       0       0       0       0
    4069       1    4470    4471    4862    4861       0       0       0       0
    4070       1    4471    4472    4863    4862       0       0       0       0
    4071       1    4472    4473    4864    4863       0       0       0       0
    4072       1    4473    4474    4865    4864       0       0       0       0
    4073       1    4474    4475    4866    4865       0       0       0       0
    4074       1    4475    4476    4867    4866       0       0       0       0
    4075       1    4476    4477    4868    4867       0       0       0       0
    4076       1    4477    4478    4869    4868       0       0       0       0
    4077       1    4478    4479    4870    4869       0       0       0       0
    4078       1    4479    4480    4871    4870       0       0       0       0
    4079       1    4480    4481    4872    4871       0       0       0       0
    4080       1    4481    4482    4873    4872       0       0       0       0
    4081       1    4482    4483    4874    4873       0       0       0       0
    4082       1    4483    4484    4875    4874       0       0       0       0
    4083       1    4484    4485    4876    4875       0       0       0       0
    4084       1    4485    4486    4877    4876       0       0       0       0
    4085       1    4486    4487    4878    4877       0       0       0       0
    4086       1    4487    4488    4879    4878       0       0       0       0
    4087       1    4488    4489    4880    4879       0       0       0       0
    4088       1    4489    4490    4881    4880       0       0       0       0
    4089       1    4490    4491    4882    4881       0       0       0       0
    4090       1    4491    4492    4883    4882       0       0       0       0
    4091       1    4492    4493    4884    4883       0       0       0       0
    4092       1    4493    4494    4885    4884       0       0       0       0
    4093       1    4494    4495    4886    4885       0       0       0       0
    4094       1    4495    4496    4887    4886       0       0       0       0
    4095       1    4496    4497    4888    4887       0       0       0       0
    4096       1    4497    4498    4889    4888       0       0       0       0
    4097       1    4498    4499    4890    4889       0       0       0       0
    4098       1    4499    4500    4891    4890       0       0       0       0
    4099       1    4500    4501    4892    4891       0       0       0       0
    4100       1    4501    4502    4893    4892       0       0       0       0
    4101       1    4502    4503    4894    4893       0       0       0       0
    4102       1    4503    4504    4895    4894       0       0       0       0
    4103       1    4504    4505    4896    4895       0       0       0       0
    4104       1    4505    4506    4897    4896       0       0       0       0
    4105       1    4506    4507    4898    4897       0       0       0       0
    4106       1    4507    4508    4899    4898       0       0       0       0
    4107       1    4508    4509    4900    4899       0       0       0       0
    4108       1    4509    4510    4901    4900       0       0       0       0
    4109       1    4510    4511    4902    4901       0       0       0       0
    4110       1    4511    4512    4903    4902       0       0       0       0
    4111       1    4512    4513    4904    4903       0       0       0       0
    4112       1    4513    4514    4905    4904       0       0       0       0
    4113       1    4514    4515    4906    4905       0       0       0       0
    4114       1    4515    4516    4907    4906       0       0       0       0
    4115       1    4516    4517    4908    4907       0       0       0       0
    4116       1    4517    4518    4909    4908       0       0       0       0
    4117       1    4518    4519    4910    4909       0       0       0       0
    4118       1    4519    4520    4911    4910       0       0       0       0
    4119       1    4520    4521    4912    4911       0       0       0       0
    4120       1    4521    4522    4913    4912       0       0       0       0
    4121       1    4522    4523    4914    4913       0       0       0       0
    4122       1    4523    4524    4915    4914       0       0       0       0
    4123       1    4524    4525    4916    4915       0       0       0       0
    4124       1    4525    4526    4917    4916       0       0       0       0
    4125       1    4526    4527    4918    4917       0       0       0       0
    4126       1    4527    4528    4919    4918       0       0       0       0
    4127       1    4528    4529    4920    4919       0       0       0       0
    4128       1    4529    4530    4921    4920       0       0       0       0
    4129       1    4530    4531    4922    4921       0       0       0       0
    4130       1    4531    4532    4923    4922       0       0       0       0
    4131       1    4532    4533    4924    4923       0       0       0       0
    4132       1    4533    4534    4925    4924       0       0       0       0
    4133       1    4534    4535    4926    4925       0       0       0       0
    4134       1    4535    4536    4927    4926       0       0       0       0
    4135       1    4536    4537    4928    4927       0       0       0       0
    4136       1    4537    4538    4929    4928       0       0       0       0
    4137       1    4538    4539    4930    4929       0       0       0       0
    4138       1    4539    4540    4931    4930       0       0       0       0
    4139       1    4540    4541    4932    4931       0       0       0       0
    4140       1    4541    4542    4933    4932       0       0       0       0
    4141       1    4542    4543    4934    4933       0       0       0       0
    4142       1    4543    4544    4935    4934       0       0       0       0
    4143       1    4544    4545    4936    4935       0       0       0       0
    4144       1    4545    4546    4937    4936       0       0       0       0
    4145       1    4546    4547    4938    4937       0       0       0       0
    4146       1    4547    4548    4939    4938       0       0       0       0
    4147       1    4548    4549    4940    4939       0       0       0       0
    4148       1    4549    4550    4941    4940       0       0       0       0
    4149       1    4550    4551    4942    4941       0       0       0       0
    4150       1    4551    4552    4943    4942       0       0       0       0
    4151       1    4552    4553    4944    4943       0       0       0       0
    4152       1    4553    4554    4945    4944       0       0       0       0
    4153       1    4554    4555    4946    4945       0       0       0       0
    4154       1    4555    4556    4947    4946       0       0       0       0
    4155       1    4556    4557    4948    4947       0       0       0       0
    4156       1    4557    4558    4949    4948       0       0       0       0
    4157       1    4558    4559    4950    4949       0       0       0       0
    4158       1    4559    4560    4951    4950       0       0       0       0
    4159       1    4560    4561    4952    4951       0       0       0       0
    4160       1    4561    4562    4953    4952       0       0       0       0
    4161       1    4562    4563    4954    4953       0       0       0       0
    4162       1    4563    4564    4955    4954       0       0       0       0
    4163       1    4564    4565    4956    4955       0       0       0       0
    4164       1    4565    4566    4957    4956       0       0       0       0
    4165       1    4566    4567    4958    4957       0       0       0       0
    4166       1    4567    4568    4959    4958       0       0       0       0
    4167       1    4568    4569    4960    4959       0       0       0       0
    4168       1    4569    4570    4961    4960       0       0       0       0
    4169       1    4570    4571    4962    4961       0       0       0       0
    4170       1    4571    4572    4963    4962       0       0       0       0
    4171       1    4572    4573    4964    4963       0       0       0       0
    4172       1    4573    4574    4965    4964       0       0       0       0
    4173       1    4574    4575    4966    4965       0       0       0       0
    4174       1    4575    4576    4967    4966       0       0       0       0
    4175       1    4576    4577    4968    4967       0       0       0       0
    4176       1    4577    4578    4969    4968       0       0       0       0
    4177       1    4578    4579    4970    4969       0       0       0       0
    4178       1    4579    4580    4971    4970       0       0       0       0
    4179       1    4580    4581    4972    4971       0       0       0       0
    4180       1    4581    4582    4973    4972       0       0       0       0
    4181       1    4582    4583    4974    4973       0       0       0       0
    4182       1    4583    4584    4975    4974       0       0       0       0
    4183       1    4584    4585    4976    4975       0       0       0       0
    4184       1    4585    4586    4977    4976       0       0       0       0
    4185       1    4586    4587    4978    4977       0       0       0       0
    4186       1    4587    4588    4979    4978       0       0       0       0
    4187       1    4588    4589    4980    4979       0       0       0       0
    4188       1    4589    4590    4981    4980       0       0       0       0
    4189       1    4590    4591    4982    4981       0       0       0       0
    4190       1    4591    4592    4983    4982       0       0       0       0
    4191       1    4592    4593    4984    4983       0       0       0       0
    4192       1    4593    4594    4985    4984       0       0       0       0
    4193       1    4594    4595    4986    4985       0       0       0       0
    4194       1    4595    4596    4987    4986       0       0       0       0
    4195       1    4596    4597    4988    4987       0       0       0       0
    4196       1    4597    4598    4989    4988       0       0       0       0
    4197       1    4598    4599    4990    4989       0       0       0       0
    4198       1    4599    4600    4991    4990       0       0       0       0
    4199       1    4600    4601    4992    4991       0       0       0       0
    4200       1    4601    4602    4993    4992       0       0       0       0
    4201       1    4602    4603    4994    4993       0       0       0       0
    4202       1    4603    4604    4995    4994       0       0       0       0
    4203       1    4604    4605    4996    4995       0       0       0       0
    4204       1    4605    4606    4997    4996       0       0       0       0
    4205       1    4606    4607    4998    4997       0       0       0       0
    4206       1    4607    4608    4999    4998       0       0       0       0
    4207       1    4608    4609    5000    4999       0       0       0       0
    4208       1    4609    4610    5001    5000       0       0       0       0
    4209       1    4610    4611    5002    5001       0       0       0       0
    4210       1    4611    4612    5003    5002       0       0       0       0
    4211       1    4612    4613    5004    5003       0       0       0       0
    4212       1    4613    4614    5005    5004       0       0       0       0
    4213       1    4614    4615    5006    5005       0       0       0       0
    4214       1    4615    4616    5007    5006       0       0       0       0
    4215       1    4616    4617    5008    5007       0       0       0       0
    4216       1    4617    4618    5009    5008       0       0       0       0
    4217       1    4618    4619    5010    5009       0       0       0       0
    4218       1    4619    4620    5011    5010       0       0       0       0
    4219       1    4620    4621    5012    5011       0       0       0       0
    4220       1    4621    4622    5013    5012       0       0       0       0
    4221       1    4622    4623    5014    5013       0       0       0       0
    4222       1    4623    4624    5015    5014       0       0       0       0
    4223       1    4624    4625    5016    5015       0       0       0       0
    4224       1    4625    4626    5017    5016       0       0       0       0
    4225       1    4626    4627    5018    5017       0       0       0       0
    4226       1    4627    4628    5019    5018       0       0       0       0
    4227       1    4628    4629    5020    5019       0       0       0       0
    4228       1    4629    4630    5021    5020       0       0       0       0
    4229       1    4630    4631    5022    5021       0       0       0       0
    4230       1    4631    4632    5023    5022       0       0       0       0
    4231       1    4632    4633    5024    5023       0       0       0       0
    4232       1    4633    4634    5025    5024       0       0       0       0
    4233       1    4634    4635    5026    5025       0       0       0       0
    4234       1    4635    4636    5027    5026       0       0       0       0
    4235       1    4636    4637    5028    5027       0       0       0       0
    4236       1    4637    4638    5029    5028       0       0       0       0
    4237       1    4638    4639    5030    5029       0       0       0       0
    4238       1    4639    4640    5031    5030       0       0       0       0
    4239       1    4640    4641    5032    5031       0       0       0       0
    4240       1    4641    4642    5033    5032       0       0       0       0
    4241       1    4642    4643    5034    5033       0       0       0       0
    4242       1    4643    4644    5035    5034       0       0       0       0
    4243       1    4644    4645    5036    5035       0       0       0       0
    4244       1    4645    4646    5037    5036       0       0       0       0
    4245       1    4646    4647    5038    5037       0       0       0       0
    4246       1    4647    4648    5039    5038       0       0       0       0
    4247       1    4648    4649    5040    5039       0       0       0       0
    4248       1    4649    4650    5041    5040       0       0       0       0
    4249       1    4650    4651    5042    5041       0       0       0       0
    4250       1    4651    4652    5043    5042       0       0       0       0
    4251       1    4652    4653    5044    5043       0       0       0       0
    4252       1    4653    4654    5045    5044       0       0       0       0
    4253       1    4654    4655    5046    5045       0       0       0       0
    4254       1    4655    4656    5047    5046       0       0       0       0
    4255       1    4656    4657    5048    5047       0       0       0       0
    4256       1    4657    4658    5049    5048       0       0       0       0
    4257       1    4658    4659    5050    5049       0       0       0       0
    4258       1    4659    4660    5051    5050       0       0       0       0
    4259       1    4660    4661    5052    5051       0       0       0       0
    4260       1    4661    4662    5053    5052       0       0       0       0
    4261       1    4662    4663    5054    5053       0       0       0       0
    4262       1    4663    4664    5055    5054       0       0       0       0
    4263       1    4664    4665    5056    5055       0       0       0       0
    4264       1    4665    4666    5057    5056       0       0       0       0
    4265       1    4666    4667    5058    5057       0       0       0       0
    4266       1    4667    4668    5059    5058       0       0       0       0
    4267       1    4668    4669    5060    5059       0       0       0       0
    4268       1    4669    4670    5061    5060       0       0       0       0
    4269       1    4670    4671    5062    5061       0       0       0       0
    4270       1    4671    4672    5063    5062       0       0       0       0
    4271       1    4672    4673    5064    5063       0       0       0       0
    4272       1    4673    4674    5065    5064       0       0       0       0
    4273       1    4674    4675    5066    5065       0       0       0       0
    4274       1    4675    4676    5067    5066       0       0       0       0
    4275       1    4676    4677    5068    5067       0       0       0       0
    4276       1    4677    4678    5069    5068       0       0       0       0
    4277       1    4678    4679    5070    5069       0       0       0       0
    4278       1    4679    4680    5071    5070       0       0       0       0
    4279       1    4680    4681    5072    5071       0       0       0       0
    4280       1    4681    4682    5073    5072       0       0       0       0
    4281       1    4682    4683    5074    5073       0       0       0       0
    4282       1    4683    4684    5075    5074       0       0       0       0
    4283       1    4684    4685    5076    5075       0       0       0       0
    4284       1    4685    4686    5077    5076       0       0       0       0
    4285       1    4686    4687    5078    5077       0       0       0       0
    4286       1    4687    4688    5079    5078       0       0       0       0
    4287       1    4688    4689    5080    5079       0       0       0       0
    4288       1    4689    4690    5081    5080       0       0       0       0
    4289       1    4690    4691    5082    5081       0       0       0       0
    4290       1    4691    4692    5083    5082       0       0       0       0
    4291       1    4693    4694    5085    5084       0       0       0       0
    4292       1    4694    4695    5086    5085       0       0       0       0
    4293       1    4695    4696    5087    5086       0       0       0       0
    4294       1    4696    4697    5088    5087       0       0       0       0
    4295       1    4697    4698    5089    5088       0       0       0       0
    4296       1    4698    4699    5090    5089       0       0       0       0
    4297       1    4699    4700    5091    5090       0       0       0       0
    4298       1    4700    4701    5092    5091       0       0       0       0
    4299       1    4701    4702    5093    5092       0       0       0       0
    4300       1    4702    4703    5094    5093       0       0       0       0
    4301       1    4703    4704    5095    5094       0       0       0       0
    4302       1    4704    4705    5096    5095       0       0       0       0
    4303       1    4705    4706    5097    5096       0       0       0       0
    4304       1    4706    4707    5098    5097       0       0       0       0
    4305       1    4707    4708    5099    5098       0       0       0       0
    4306       1    4708    4709    5100    5099       0       0       0       0
    4307       1    4709    4710    5101    5100       0       0       0       0
    4308       1    4710    4711    5102    5101       0       0       0       0
    4309       1    4711    4712    5103    5102       0       0       0       0
    4310       1    4712    4713    5104    5103       0       0       0       0
    4311       1    4713    4714    5105    5104       0       0       0       0
    4312       1    4714    4715    5106    5105       0       0       0       0
    4313       1    4715    4716    5107    5106       0       0       0       0
    4314       1    4716    4717    5108    5107       0       0       0       0
    4315       1    4717    4718    5109    5108       0       0       0       0
    4316       1    4718    4719    5110    5109       0       0       0       0
    4317       1    4719    4720    5111    5110       0       0       0       0
    4318       1    4720    4721    5112    5111       0       0       0       0
    4319       1    4721    4722    5113    5112       0       0       0       0
    4320       1    4722    4723    5114    5113       0       0       0       0
    4321       1    4723    4724    5115    5114       0       0       0       0
    4322       1    4724    4725    5116    5115       0       0       0       0
    4323       1    4725    4726    5117    5116       0       0       0       0
    4324       1    4726    4727    5118    5117       0       0       0       0
    4325       1    4727    4728    5119    5118       0       0       0       0
    4326       1    4728    4729    5120    5119       0       0       0       0
    4327       1    4729    4730    5121    5120       0       0       0       0
    4328       1    4730    4731    5122    5121       0       0       0       0
    4329       1    4731    4732    5123    5122       0       0       0       0
    4330       1    4732    4733    5124    5123       0       0       0       0
    4331       1    4733    4734    5125    5124       0       0       0       0
    4332       1    4734    4735    5126    5125       0       0       0       0
    4333       1    4735    4736    5127    5126       0       0       0       0
    4334       1    4736    4737    5128    5127       0       0       0       0
    4335       1    4737    4738    5129    5128       0       0       0       0
    4336       1    4738    4739    5130    5129       0       0       0       0
    4337       1    4739    4740    5131    5130       0       0       0       0
    4338       1    4740    4741    5132    5131       0       0       0       0
    4339       1    4741    4742    5133    5132       0       0       0       0
    4340       1    4742    4743    5134    5133       0       0       0       0
    4341       1    4743    4744    5135    5134       0       0       0       0
    4342       1    4744    4745    5136    5135       0       0       0       0
    4343       1    4745    4746    5137    5136       0       0       0       0
    4344       1    4746    4747    5138    5137       0       0       0       0
    4345       1    4747    4748    5139    5138       0       0       0       0
    4346       1    4748    4749    5140    5139       0       0       0       0
    4347       1    4749    4750    5141    5140       0       0       0       0
    4348       1    4750    4751    5142    5141       0       0       0       0
    4349       1    4751    4752    5143    5142       0       0       0       0
    4350       1    4752    4753    5144    5143       0       0       0       0
    4351       1    4753    4754    5145    5144       0       0       0       0
    4352       1    4754    4755    5146    5145       0       0       0       0
    4353       1    4755    4756    5147    5146       0       0       0       0
    4354       1    4756    4757    5148    5147       0       0       0       0
    4355       1    4757    4758    5149    5148       0       0       0       0
    4356       1    4758    4759    5150    5149       0       0       0       0
    4357       1    4759    4760    5151    5150       0       0       0       0
    4358       1    4760    4761    5152    5151       0       0       0       0
    4359       1    4761    4762    5153    5152       0       0       0       0
    4360       1    4762    4763    5154    5153       0       0       0       0
    4361       1    4763    4764    5155    5154       0       0       0       0
    4362       1    4764    4765    5156    5155       0       0       0       0
    4363       1    4765    4766    5157    5156       0       0       0       0
    4364       1    4766    4767    5158    5157       0       0       0       0
    4365       1    4767    4768    5159    5158       0       0       0       0
    4366       1    4768    4769    5160    5159       0       0       0       0
    4367       1    4769    4770    5161    5160       0       0       0       0
    4368       1    4770    4771    5162    5161       0       0       0       0
    4369       1    4771    4772    5163    5162       0       0       0       0
    4370       1    4772    4773    5164    5163       0       0       0       0
    4371       1    4773    4774    5165    5164       0       0       0       0
    4372       1    4774    4775    5166    5165       0       0       0       0
    4373       1    4775    4776    5167    5166       0       0       0       0
    4374       1    4776    4777    5168    5167       0       0       0       0
    4375       1    4777    4778    5169    5168       0       0       0       0
    4376       1    4778    4779    5170    5169       0       0       0       0
    4377       1    4779    4780    5171    5170       0       0       0       0
    4378       1    4780    4781    5172    5171       0       0       0       0
    4379       1    4781    4782    5173    5172       0       0       0       0
    4380       1    4782    4783    5174    5173       0       0       0       0
    4381       1    4783    4784    5175    5174       0       0       0       0
    4382       1    4784    4785    5176    5175       0       0       0       0
    4383       1    4785    4786    5177    5176       0       0       0       0
    4384       1    4786    4787    5178    5177       0       0       0       0
    4385       1    4787    4788    5179    5178       0       0       0       0
    4386       1    4788    4789    5180    5179       0       0       0       0
    4387       1    4789    4790    5181    5180       0       0       0       0
    4388       1    4790    4791    5182    5181       0       0       0       0
    4389       1    4791    4792    5183    5182       0       0       0       0
    4390       1    4792    4793    5184    5183       0       0       0       0
    4391       1    4793    4794    5185    5184       0       0       0       0
    4392       1    4794    4795    5186    5185       0       0       0       0
    4393       1    4795    4796    5187    5186       0       0       0       0
    4394       1    4796    4797    5188    5187       0       0       0       0
    4395       1    4797    4798    5189    5188       0       0       0       0
    4396       1    4798    4799    5190    5189       0       0       0       0
    4397       1    4799    4800    5191    5190       0       0       0       0
    4398       1    4800    4801    5192    5191       0       0       0       0
    4399       1    4801    4802    5193    5192       0       0       0       0
    4400       1    4802    4803    5194    5193       0       0       0       0
    4401       1    4803    4804    5195    5194       0       0       0       0
    4402       1    4804    4805    5196    5195       0       0       0       0
    4403       1    4805    4806    5197    5196       0       0       0       0
    4404       1    4806    4807    5198    5197       0       0       0       0
    4405       1    4807    4808    5199    5198       0       0       0       0
    4406       1    4808    4809    5200    5199       0       0       0       0
    4407       1    4809    4810    5201    5200       0       0       0       0
    4408       1    4810    4811    5202    5201       0       0       0       0
    4409       1    4811    4812    5203    5202       0       0       0       0
    4410       1    4812    4813    5204    5203       0       0       0       0
    4411       1    4813    4814    5205    5204       0       0       0       0
    4412       1    4814    4815    5206    5205       0       0       0       0
    4413       1    4815    4816    5207    5206       0       0       0       0
    4414       1    4816    4817    5208    5207       0       0       0       0
    4415       1    4817    4818    5209    5208       0       0       0       0
    4416       1    4818    4819    5210    5209       0       0       0       0
    4417       1    4819    4820    5211    5210       0       0       0       0
    4418       1    4820    4821    5212    5211       0       0       0       0
    4419       1    4821    4822    5213    5212       0       0       0       0
    4420       1    4822    4823    5214    5213       0       0       0       0
    4421       1    4823    4824    5215    5214       0       0       0       0
    4422       1    4824    4825    5216    5215       0       0       0       0
    4423       1    4825    4826    5217    5216       0       0       0       0
    4424       1    4826    4827    5218    5217       0       0       0       0
    4425       1    4827    4828    5219    5218       0       0       0       0
    4426       1    4828    4829    5220    5219       0       0       0       0
    4427       1    4829    4830    5221    5220       0       0       0       0
    4428       1    4830    4831    5222    5221       0       0       0       0
    4429       1    4831    4832    5223    5222       0       0       0       0
    4430       1    4832    4833    5224    5223       0       0       0       0
    4431       1    4833    4834    5225    5224       0       0       0       0
    4432       1    4834    4835    5226    5225       0       0       0       0
    4433       1    4835    4836    5227    5226       0       0       0       0
    4434       1    4836    4837    5228    5227       0       0       0       0
    4435       1    4837    4838    5229    5228       0       0       0       0
    4436       1    4838    4839    5230    5229       0       0       0       0
    4437       1    4839    4840    5231    5230       0       0       0       0
    4438       1    4840    4841    5232    5231       0       0       0       0
    4439       1    4841    4842    5233    5232       0       0       0       0
    4440       1    4842    4843    5234    5233       0       0       0       0
    4441       1    4843    4844    5235    5234       0       0       0       0
    4442       1    4844    4845    5236    5235       0       0       0       0
    4443       1    4845    4846    5237    5236       0       0       0       0
    4444       1    4846    4847    5238    5237       0       0       0       0
    4445       1    4847    4848    5239    5238       0       0       0       0
    4446       1    4848    4849    5240    5239       0       0       0       0
    4447       1    4849    4850    5241    5240       0       0       0       0
    4448       1    4850    4851    5242    5241       0       0       0       0
    4449       1    4851    4852    5243    5242       0       0       0       0
    4450       1    4852    4853    5244    5243       0       0       0       0
    4451       1    4853    4854    5245    5244       0       0       0       0
    4452       1    4854    4855    5246    5245       0       0       0       0
    4453       1    4855    4856    5247    5246       0       0       0       0
    4454       1    4856    4857    5248    5247       0       0       0       0
    4455       1    4857    4858    5249    5248       0       0       0       0
    4456       1    4858    4859    5250    5249       0       0       0       0
    4457       1    4859    4860    5251    5250       0       0       0       0
    4458       1    4860    4861    5252    5251       0       0       0       0
    4459       1    4861    4862    5253    5252       0       0       0       0
    4460       1    4862    4863    5254    5253       0       0       0       0
    4461       1    4863    4864    5255    5254       0       0       0       0
    4462       1    4864    4865    5256    5255       0       0       0       0
    4463       1    4865    4866    5257    5256       0       0       0       0
    4464       1    4866    4867    5258    5257       0       0       0       0
    4465       1    4867    4868    5259    5258       0       0       0       0
    4466       1    4868    4869    5260    5259       0       0       0       0
    4467       1    4869    4870    5261    5260       0       0       0       0
    4468       1    4870    4871    5262    5261       0       0       0       0
    4469       1    4871    4872    5263    5262       0       0       0       0
    4470       1    4872    4873    5264    5263       0       0       0       0
    4471       1    4873    4874    5265    5264       0       0       0       0
    4472       1    4874    4875    5266    5265       0       0       0       0
    4473       1    4875    4876    5267    5266       0       0       0       0
    4474       1    4876    4877    5268    5267       0       0       0       0
    4475       1    4877    4878    5269    5268       0       0       0       0
    4476       1    4878    4879    5270    5269       0       0       0       0
    4477       1    4879    4880    5271    5270       0       0       0       0
    4478       1    4880    4881    5272    5271       0       0       0       0
    4479       1    4881    4882    5273    5272       0       0       0       0
    4480       1    4882    4883    5274    5273       0       0       0       0
    4481       1    4883    4884    5275    5274       0       0       0       0
    4482       1    4884    4885    5276    5275       0       0       0       0
    4483       1    4885    4886    5277    5276       0       0       0       0
    4484       1    4886    4887    5278    5277       0       0       0       0
    4485       1    4887    4888    5279    5278       0       0       0       0
    4486       1    4888    4889    5280    5279       0       0       0       0
    4487       1    4889    4890    5281    5280       0       0       0       0
    4488       1    4890    4891    5282    5281       0       0       0       0
    4489       1    4891    4892    5283    5282       0       0       0       0
    4490       1    4892    4893    5284    5283       0       0       0       0
    4491       1    4893    4894    5285    5284       0       0       0       0
    4492       1    4894    4895    5286    5285       0       0       0       0
    4493       1    4895    4896    5287    5286       0       0       0       0
    4494       1    4896    4897    5288    5287       0       0       0       0
    4495       1    4897    4898    5289    5288       0       0       0       0
    4496       1    4898    4899    5290    5289       0       0       0       0
    4497       1    4899    4900    5291    5290       0       0       0       0
    4498       1    4900    4901    5292    5291       0       0       0       0
    4499       1    4901    4902    5293    5292       0       0       0       0
    4500       1    4902    4903    5294    5293       0       0       0       0
    4501       1    4903    4904    5295    5294       0       0       0       0
    4502       1    4904    4905    5296    5295       0       0       0       0
    4503       1    4905    4906    5297    5296       0       0       0       0
    4504       1    4906    4907    5298    5297       0       0       0       0
    4505       1    4907    4908    5299    5298       0       0       0       0
    4506       1    4908    4909    5300    5299       0       0       0       0
    4507       1    4909    4910    5301    5300       0       0       0       0
    4508       1    4910    4911    5302    5301       0       0       0       0
    4509       1    4911    4912    5303    5302       0       0       0       0
    4510       1    4912    4913    5304    5303       0       0       0       0
    4511       1    4913    4914    5305    5304       0       0       0       0
    4512       1    4914    4915    5306    5305       0       0       0       0
    4513       1    4915    4916    5307    5306       0       0       0       0
    4514       1    4916    4917    5308    5307       0       0       0       0
    4515       1    4917    4918    5309    5308       0       0       0       0
    4516       1    4918    4919    5310    5309       0       0       0       0
    4517       1    4919    4920    5311    5310       0       0       0       0
    4518       1    4920    4921    5312    5311       0       0       0       0
    4519       1    4921    4922    5313    5312       0       0       0       0
    4520       1    4922    4923    5314    5313       0       0       0       0
    4521       1    4923    4924    5315    5314       0       0       0       0
    4522       1    4924    4925    5316    5315       0       0       0       0
    4523       1    4925    4926    5317    5316       0       0       0       0
    4524       1    4926    4927    5318    5317       0       0       0       0
    4525       1    4927    4928    5319    5318       0       0       0       0
    4526       1    4928    4929    5320    5319       0       0       0       0
    4527       1    4929    4930    5321    5320       0       0       0       0
    4528       1    4930    4931    5322    5321       0       0       0       0
    4529       1    4931    4932    5323    5322       0       0       0       0
    4530       1    4932    4933    5324    5323       0       0       0       0
    4531       1    4933    4934    5325    5324       0       0       0       0
    4532       1    4934    4935    5326    5325       0       0       0       0
    4533       1    4935    4936    5327    5326       0       0       0       0
    4534       1    4936    4937    5328    5327       0       0       0       0
    4535       1    4937    4938    5329    5328       0       0       0       0
    4536       1    4938    4939    5330    5329       0       0       0       0
    4537       1    4939    4940    5331    5330       0       0       0       0
    4538       1    4940    4941    5332    5331       0       0       0       0
    4539       1    4941    4942    5333    5332       0       0       0       0
    4540       1    4942    4943    5334    5333       0       0       0       0
    4541       1    4943    4944    5335    5334       0       0       0       0
    4542       1    4944    4945    5336    5335       0       0       0       0
    4543       1    4945    4946    5337    5336       0       0       0       0
    4544       1    4946    4947    5338    5337       0       0       0       0
    4545       1    4947    4948    5339    5338       0       0       0       0
    4546       1    4948    4949    5340    5339       0       0       0       0
    4547       1    4949    4950    5341    5340       0       0       0       0
    4548       1    4950    4951    5342    5341       0       0       0       0
    4549       1    4951    4952    5343    5342       0       0       0       0
    4550       1    4952    4953    5344    5343       0       0       0       0
    4551       1    4953    4954    5345    5344       0       0       0       0
    4552       1    4954    4955    5346    5345       0       0       0       0
    4553       1    4955    4956    5347    5346       0       0       0       0
    4554       1    4956    4957    5348    5347       0       0       0       0
    4555       1    4957    4958    5349    5348       0       0       0       0
    4556       1    4958    4959    5350    5349       0       0       0       0
    4557       1    4959    4960    5351    5350       0       0       0       0
    4558       1    4960    4961    5352    5351       0       0       0       0
    4559       1    4961    4962    5353    5352       0       0       0       0
    4560       1    4962    4963    5354    5353       0       0       0       0
    4561       1    4963    4964    5355    5354       0       0       0       0
    4562       1    4964    4965    5356    5355       0       0       0       0
    4563       1    4965    4966    5357    5356       0       0       0       0
    4564       1    4966    4967    5358    5357       0       0       0       0
    4565       1    4967    4968    5359    5358       0       0       0       0
    4566       1    4968    4969    5360    5359       0       0       0       0
    4567       1    4969    4970    5361    5360       0       0       0       0
    4568       1    4970    4971    5362    5361       0       0       0       0
    4569       1    4971    4972    5363    5362       0       0       0       0
    4570       1    4972    4973    5364    5363       0       0       0       0
    4571       1    4973    4974    5365    5364       0       0       0       0
    4572       1    4974    4975    5366    5365       0       0       0       0
    4573       1    4975    4976    5367    5366       0       0       0       0
    4574       1    4976    4977    5368    5367       0       0       0       0
    4575       1    4977    4978    5369    5368       0       0       0       0
    4576       1    4978    4979    5370    5369       0       0       0       0
    4577       1    4979    4980    5371    5370       0       0       0       0
    4578       1    4980    4981    5372    5371       0       0       0       0
    4579       1    4981    4982    5373    5372       0       0       0       0
    4580       1    4982    4983    5374    5373       0       0       0       0
    4581       1    4983    4984    5375    5374       0       0       0       0
    4582       1    4984    4985    5376    5375       0       0       0       0
    4583       1    4985    4986    5377    5376       0       0       0       0
    4584       1    4986    4987    5378    5377       0       0       0       0
    4585       1    4987    4988    5379    5378       0       0       0       0
    4586       1    4988    4989    5380    5379       0       0       0       0
    4587       1    4989    4990    5381    5380       0       0       0       0
    4588       1    4990    4991    5382    5381       0       0       0       0
    4589       1    4991    4992    5383    5382       0       0       0       0
    4590       1    4992    4993    5384    5383       0       0       0       0
    4591       1    4993    4994    5385    5384       0       0       0       0
    4592       1    4994    4995    5386    5385       0       0       0       0
    4593       1    4995    4996    5387    5386       0       0       0       0
    4594       1    4996    4997    5388    5387       0       0       0       0
    4595       1    4997    4998    5389    5388       0       0       0       0
    4596       1    4998    4999    5390    5389       0       0       0       0
    4597       1    4999    5000    5391    5390       0       0       0       0
    4598       1    5000    5001    5392    5391       0       0       0       0
    4599       1    5001    5002    5393    5392       0       0       0       0
    4600       1    5002    5003    5394    5393       0       0       0       0
    4601       1    5003    5004    5395    5394       0       0       0       0
    4602       1    5004    5005    5396    5395       0       0       0       0
    4603       1    5005    5006    5397    5396       0       0       0       0
    4604       1    5006    5007    5398    5397       0       0       0       0
    4605       1    5007    5008    5399    5398       0       0       0       0
    4606       1    5008    5009    5400    5399       0       0       0       0
    4607       1    5009    5010    5401    5400       0       0       0       0
    4608       1    5010    5011    5402    5401       0       0       0       0
    4609       1    5011    5012    5403    5402       0       0       0       0
    4610       1    5012    5013    5404    5403       0       0       0       0
    4611       1    5013    5014    5405    5404       0       0       0       0
    4612       1    5014    5015    5406    5405       0       0       0       0
    4613       1    5015    5016    5407    5406       0       0       0       0
    4614       1    5016    5017    5408    5407       0       0       0       0
    4615       1    5017    5018    5409    5408       0       0       0       0
    4616       1    5018    5019    5410    5409       0       0       0       0
    4617       1    5019    5020    5411    5410       0       0       0       0
    4618       1    5020    5021    5412    5411       0       0       0       0
    4619       1    5021    5022    5413    5412       0       0       0       0
    4620       1    5022    5023    5414    5413       0       0       0       0
    4621       1    5023    5024    5415    5414       0       0       0       0
    4622       1    5024    5025    5416    5415       0       0       0       0
    4623       1    5025    5026    5417    5416       0       0       0       0
    4624       1    5026    5027    5418    5417       0       0       0       0
    4625       1    5027    5028    5419    5418       0       0       0       0
    4626       1    5028    5029    5420    5419       0       0       0       0
    4627       1    5029    5030    5421    5420       0       0       0       0
    4628       1    5030    5031    5422    5421       0       0       0       0
    4629       1    5031    5032    5423    5422       0       0       0       0
    4630       1    5032    5033    5424    5423       0       0       0       0
    4631       1    5033    5034    5425    5424       0       0       0       0
    4632       1    5034    5035    5426    5425       0       0       0       0
    4633       1    5035    5036    5427    5426       0       0       0       0
    4634       1    5036    5037    5428    5427       0       0       0       0
    4635       1    5037    5038    5429    5428       0       0       0       0
    4636       1    5038    5039    5430    5429       0       0       0       0
    4637       1    5039    5040    5431    5430       0       0       0       0
    4638       1    5040    5041    5432    5431       0       0       0       0
    4639       1    5041    5042    5433    5432       0       0       0       0
    4640       1    5042    5043    5434    5433       0       0       0       0
    4641       1    5043    5044    5435    5434       0       0       0       0
    4642       1    5044    5045    5436    5435       0       0       0       0
    4643       1    5045    5046    5437    5436       0       0       0       0
    4644       1    5046    5047    5438    5437       0       0       0       0
    4645       1    5047    5048    5439    5438       0       0       0       0
    4646       1    5048    5049    5440    5439       0       0       0       0
    4647       1    5049    5050    5441    5440       0       0       0       0
    4648       1    5050    5051    5442    5441       0       0       0       0
    4649       1    5051    5052    5443    5442       0       0       0       0
    4650       1    5052    5053    5444    5443       0       0       0       0
    4651       1    5053    5054    5445    5444       0       0       0       0
    4652       1    5054    5055    5446    5445       0       0       0       0
    4653       1    5055    5056    5447    5446       0       0       0       0
    4654       1    5056    5057    5448    5447       0       0       0       0
    4655       1    5057    5058    5449    5448       0       0       0       0
    4656       1    5058    5059    5450    5449       0       0       0       0
    4657       1    5059    5060    5451    5450       0       0       0       0
    4658       1    5060    5061    5452    5451       0       0       0       0
    4659       1    5061    5062    5453    5452       0       0       0       0
    4660       1    5062    5063    5454    5453       0       0       0       0
    4661       1    5063    5064    5455    5454       0       0       0       0
    4662       1    5064    5065    5456    5455       0       0       0       0
    4663       1    5065    5066    5457    5456       0       0       0       0
    4664       1    5066    5067    5458    5457       0       0       0       0
    4665       1    5067    5068    5459    5458       0       0       0       0
    4666       1    5068    5069    5460    5459       0       0       0       0
    4667       1    5069    5070    5461    5460       0       0       0       0
    4668       1    5070    5071    5462    5461       0       0       0       0
    4669       1    5071    5072    5463    5462       0       0       0       0
    4670       1    5072    5073    5464    5463       0       0       0       0
    4671       1    5073    5074    5465    5464       0       0       0       0
    4672       1    5074    5075    5466    5465       0       0       0       0
    4673       1    5075    5076    5467    5466       0       0       0       0
    4674       1    5076    5077    5468    5467       0       0       0       0
    4675       1    5077    5078    5469    5468       0       0       0       0
    4676       1    5078    5079    5470    5469       0       0       0       0
    4677       1    5079    5080    5471    5470       0       0       0       0
    4678       1    5080    5081    5472    5471       0       0       0       0
    4679       1    5081    5082    5473    5472       0       0       0       0
    4680       1    5082    5083    5474    5473       0       0       0       0
    4681       1    5084    5085    5476    5475       0       0       0       0
    4682       1    5085    5086    5477    5476       0       0       0       0
    4683       1    5086    5087    5478    5477       0       0       0       0
    4684       1    5087    5088    5479    5478       0       0       0       0
    4685       1    5088    5089    5480    5479       0       0       0       0
    4686       1    5089    5090    5481    5480       0       0       0       0
    4687       1    5090    5091    5482    5481       0       0       0       0
    4688       1    5091    5092    5483    5482       0       0       0       0
    4689       1    5092    5093    5484    5483       0       0       0       0
    4690       1    5093    5094    5485    5484       0       0       0       0
    4691       1    5094    5095    5486    5485       0       0       0       0
    4692       1    5095    5096    5487    5486       0       0       0       0
    4693       1    5096    5097    5488    5487       0       0       0       0
    4694       1    5097    5098    5489    5488       0       0       0       0
    4695       1    5098    5099    5490    5489       0       0       0       0
    4696       1    5099    5100    5491    5490       0       0       0       0
    4697       1    5100    5101    5492    5491       0       0       0       0
    4698       1    5101    5102    5493    5492       0       0       0       0
    4699       1    5102    5103    5494    5493       0       0       0       0
    4700       1    5103    5104    5495    5494       0       0       0       0
    4701       1    5104    5105    5496    5495       0       0       0       0
    4702       1    5105    5106    5497    5496       0       0       0       0
    4703       1    5106    5107    5498    5497       0       0       0       0
    4704       1    5107    5108    5499    5498       0       0       0       0
    4705       1    5108    5109    5500    5499       0       0       0       0
    4706       1    5109    5110    5501    5500       0       0       0       0
    4707       1    5110    5111    5502    5501       0       0       0       0
    4708       1    5111    5112    5503    5502       0       0       0       0
    4709       1    5112    5113    5504    5503       0       0       0       0
    4710       1    5113    5114    5505    5504       0       0       0       0
    4711       1    5114    5115    5506    5505       0       0       0       0
    4712       1    5115    5116    5507    5506       0       0       0       0
    4713       1    5116    5117    5508    5507       0       0       0       0
    4714       1    5117    5118    5509    5508       0       0       0       0
    4715       1    5118    5119    5510    5509       0       0       0       0
    4716       1    5119    5120    5511    5510       0       0       0       0
    4717       1    5120    5121    5512    5511       0       0       0       0
    4718       1    5121    5122    5513    5512       0       0       0       0
    4719       1    5122    5123    5514    5513       0       0       0       0
    4720       1    5123    5124    5515    5514       0       0       0       0
    4721       1    5124    5125    5516    5515       0       0       0       0
    4722       1    5125    5126    5517    5516       0       0       0       0
    4723       1    5126    5127    5518    5517       0       0       0       0
    4724       1    5127    5128    5519    5518       0       0       0       0
    4725       1    5128    5129    5520    5519       0       0       0       0
    4726       1    5129    5130    5521    5520       0       0       0       0
    4727       1    5130    5131    5522    5521       0       0       0       0
    4728       1    5131    5132    5523    5522       0       0       0       0
    4729       1    5132    5133    5524    5523       0       0       0       0
    4730       1    5133    5134    5525    5524       0       0       0       0
    4731       1    5134    5135    5526    5525       0       0       0       0
    4732       1    5135    5136    5527    5526       0       0       0       0
    4733       1    5136    5137    5528    5527       0       0       0       0
    4734       1    5137    5138    5529    5528       0       0       0       0
    4735       1    5138    5139    5530    5529       0       0       0       0
    4736       1    5139    5140    5531    5530       0       0       0       0
    4737       1    5140    5141    5532    5531       0       0       0       0
    4738       1    5141    5142    5533    5532       0       0       0       0
    4739       1    5142    5143    5534    5533       0       0       0       0
    4740       1    5143    5144    5535    5534       0       0       0       0
    4741       1    5144    5145    5536    5535       0       0       0       0
    4742       1    5145    5146    5537    5536       0       0       0       0
    4743       1    5146    5147    5538    5537       0       0       0       0
    4744       1    5147    5148    5539    5538       0       0       0       0
    4745       1    5148    5149    5540    5539       0       0       0       0
    4746       1    5149    5150    5541    5540       0       0       0       0
    4747       1    5150    5151    5542    5541       0       0       0       0
    4748       1    5151    5152    5543    5542       0       0       0       0
    4749       1    5152    5153    5544    5543       0       0       0       0
    4750       1    5153    5154    5545    5544       0       0       0       0
    4751       1    5154    5155    5546    5545       0       0       0       0
    4752       1    5155    5156    5547    5546       0       0       0       0
    4753       1    5156    5157    5548    5547       0       0       0       0
    4754       1    5157    5158    5549    5548       0       0       0       0
    4755       1    5158    5159    5550    5549       0       0       0       0
    4756       1    5159    5160    5551    5550       0       0       0       0
    4757       1    5160    5161    5552    5551       0       0       0       0
    4758       1    5161    5162    5553    5552       0       0       0       0
    4759       1    5162    5163    5554    5553       0       0       0       0
    4760       1    5163    5164    5555    5554       0       0       0       0
    4761       1    5164    5165    5556    5555       0       0       0       0
    4762       1    5165    5166    5557    5556       0       0       0       0
    4763       1    5166    5167    5558    5557       0       0       0       0
    4764       1    5167    5168    5559    5558       0       0       0       0
    4765       1    5168    5169    5560    5559       0       0       0       0
    4766       1    5169    5170    5561    5560       0       0       0       0
    4767       1    5170    5171    5562    5561       0       0       0       0
    4768       1    5171    5172    5563    5562       0       0       0       0
    4769       1    5172    5173    5564    5563       0       0       0       0
    4770       1    5173    5174    5565    5564       0       0       0       0
    4771       1    5174    5175    5566    5565       0       0       0       0
    4772       1    5175    5176    5567    5566       0       0       0       0
    4773       1    5176    5177    5568    5567       0       0       0       0
    4774       1    5177    5178    5569    5568       0       0       0       0
    4775       1    5178    5179    5570    5569       0       0       0       0
    4776       1    5179    5180    5571    5570       0       0       0       0
    4777       1    5180    5181    5572    5571       0       0       0       0
    4778       1    5181    5182    5573    5572       0       0       0       0
    4779       1    5182    5183    5574    5573       0       0       0       0
    4780       1    5183    5184    5575    5574       0       0       0       0
    4781       1    5184    5185    5576    5575       0       0       0       0
    4782       1    5185    5186    5577    5576       0       0       0       0
    4783       1    5186    5187    5578    5577       0       0       0       0
    4784       1    5187    5188    5579    5578       0       0       0       0
    4785       1    5188    5189    5580    5579       0       0       0       0
    4786       1    5189    5190    5581    5580       0       0       0       0
    4787       1    5190    5191    5582    5581       0       0       0       0
    4788       1    5191    5192    5583    5582       0       0       0       0
    4789       1    5192    5193    5584    5583       0       0       0       0
    4790       1    5193    5194    5585    5584       0       0       0       0
    4791       1    5194    5195    5586    5585       0       0       0       0
    4792       1    5195    5196    5587    5586       0       0       0       0
    4793       1    5196    5197    5588    5587       0       0       0       0
    4794       1    5197    5198    5589    5588       0       0       0       0
    4795       1    5198    5199    5590    5589       0       0       0       0
    4796       1    5199    5200    5591    5590       0       0       0       0
    4797       1    5200    5201    5592    5591       0       0       0       0
    4798       1    5201    5202    5593    5592       0       0       0       0
    4799       1    5202    5203    5594    5593       0       0       0       0
    4800       1    5203    5204    5595    5594       0       0       0       0
    4801       1    5204    5205    5596    5595       0       0       0       0
    4802       1    5205    5206    5597    5596       0       0       0       0
    4803       1    5206    5207    5598    5597       0       0       0       0
    4804       1    5207    5208    5599    5598       0       0       0       0
    4805       1    5208    5209    5600    5599       0       0       0       0
    4806       1    5209    5210    5601    5600       0       0       0       0
    4807       1    5210    5211    5602    5601       0       0       0       0
    4808       1    5211    5212    5603    5602       0       0       0       0
    4809       1    5212    5213    5604    5603       0       0       0       0
    4810       1    5213    5214    5605    5604       0       0       0       0
    4811       1    5214    5215    5606    5605       0       0       0       0
    4812       1    5215    5216    5607    5606       0       0       0       0
    4813       1    5216    5217    5608    5607       0       0       0       0
    4814       1    5217    5218    5609    5608       0       0       0       0
    4815       1    5218    5219    5610    5609       0       0       0       0
    4816       1    5219    5220    5611    5610       0       0       0       0
    4817       1    5220    5221    5612    5611       0       0       0       0
    4818       1    5221    5222    5613    5612       0       0       0       0
    4819       1    5222    5223    5614    5613       0       0       0       0
    4820       1    5223    5224    5615    5614       0       0       0       0
    4821       1    5224    5225    5616    5615       0       0       0       0
    4822       1    5225    5226    5617    5616       0       0       0       0
    4823       1    5226    5227    5618    5617       0       0       0       0
    4824       1    5227    5228    5619    5618       0       0       0       0
    4825       1    5228    5229    5620    5619       0       0       0       0
    4826       1    5229    5230    5621    5620       0       0       0       0
    4827       1    5230    5231    5622    5621       0       0       0       0
    4828       1    5231    5232    5623    5622       0       0       0       0
    4829       1    5232    5233    5624    5623       0       0       0       0
    4830       1    5233    5234    5625    5624       0       0       0       0
    4831       1    5234    5235    5626    5625       0       0       0       0
    4832       1    5235    5236    5627    5626       0       0       0       0
    4833       1    5236    5237    5628    5627       0       0       0       0
    4834       1    5237    5238    5629    5628       0       0       0       0
    4835       1    5238    5239    5630    5629       0       0       0       0
    4836       1    5239    5240    5631    5630       0       0       0       0
    4837       1    5240    5241    5632    5631       0       0       0       0
    4838       1    5241    5242    5633    5632       0       0       0       0
    4839       1    5242    5243    5634    5633       0       0       0       0
    4840       1    5243    5244    5635    5634       0       0       0       0
    4841       1    5244    5245    5636    5635       0       0       0       0
    4842       1    5245    5246    5637    5636       0       0       0       0
    4843       1    5246    5247    5638    5637       0       0       0       0
    4844       1    5247    5248    5639    5638       0       0       0       0
    4845       1    5248    5249    5640    5639       0       0       0       0
    4846       1    5249    5250    5641    5640       0       0       0       0
    4847       1    5250    5251    5642    5641       0       0       0       0
    4848       1    5251    5252    5643    5642       0       0       0       0
    4849       1    5252    5253    5644    5643       0       0       0       0
    4850       1    5253    5254    5645    5644       0       0       0       0
    4851       1    5254    5255    5646    5645       0       0       0       0
    4852       1    5255    5256    5647    5646       0       0       0       0
    4853       1    5256    5257    5648    5647       0       0       0       0
    4854       1    5257    5258    5649    5648       0       0       0       0
    4855       1    5258    5259    5650    5649       0       0       0       0
    4856       1    5259    5260    5651    5650       0       0       0       0
    4857       1    5260    5261    5652    5651       0       0       0       0
    4858       1    5261    5262    5653    5652       0       0       0       0
    4859       1    5262    5263    5654    5653       0       0       0       0
    4860       1    5263    5264    5655    5654       0       0       0       0
    4861       1    5264    5265    5656    5655       0       0       0       0
    4862       1    5265    5266    5657    5656       0       0       0       0
    4863       1    5266    5267    5658    5657       0       0       0       0
    4864       1    5267    5268    5659    5658       0       0       0       0
    4865       1    5268    5269    5660    5659       0       0       0       0
    4866       1    5269    5270    5661    5660       0       0       0       0
    4867       1    5270    5271    5662    5661       0       0       0       0
    4868       1    5271    5272    5663    5662       0       0       0       0
    4869       1    5272    5273    5664    5663       0       0       0       0
    4870       1    5273    5274    5665    5664       0       0       0       0
    4871       1    5274    5275    5666    5665       0       0       0       0
    4872       1    5275    5276    5667    5666       0       0       0       0
    4873       1    5276    5277    5668    5667       0       0       0       0
    4874       1    5277    5278    5669    5668       0       0       0       0
    4875       1    5278    5279    5670    5669       0       0       0       0
    4876       1    5279    5280    5671    5670       0       0       0       0
    4877       1    5280    5281    5672    5671       0       0       0       0
    4878       1    5281    5282    5673    5672       0       0       0       0
    4879       1    5282    5283    5674    5673       0       0       0       0
    4880       1    5283    5284    5675    5674       0       0       0       0
    4881       1    5284    5285    5676    5675       0       0       0       0
    4882       1    5285    5286    5677    5676       0       0       0       0
[...]
      8584      8583         0         0       0.0       0.0       0.0       0.0
      8329      8328         0         0       0.0       0.0       0.0       0.0
      8585      8584         0         0       0.0       0.0       0.0       0.0
      8330      8329         0         0       0.0       0.0       0.0       0.0
      8586      8585         0         0       0.0       0.0       0.0       0.0
      8331      8330         0         0       0.0       0.0       0.0       0.0
      8587      8586         0         0       0.0       0.0       0.0       0.0
      8332      8331         0         0       0.0       0.0       0.0       0.0
      8588      8587         0         0       0.0       0.0       0.0       0.0
      8333      8332         0         0       0.0       0.0       0.0       0.0
      8589      8588         0         0       0.0       0.0       0.0       0.0
      8334      8333         0         0       0.0       0.0       0.0       0.0
      8590      8589         0         0       0.0       0.0       0.0       0.0
      8335      8334         0         0       0.0       0.0       0.0       0.0
      8591      8590         0         0       0.0       0.0       0.0       0.0
      8336      8335         0         0       0.0       0.0       0.0       0.0
      8592      8591         0         0       0.0       0.0       0.0       0.0
      8337      8336         0         0       0.0       0.0       0.0       0.0
      8593      8592         0         0       0.0       0.0       0.0       0.0
      8338      8337         0         0       0.0       0.0       0.0       0.0
      8594      8593         0         0       0.0       0.0       0.0       0.0
      8339      8338         0         0       0.0       0.0       0.0       0.0
      8595      8594         0         0       0.0       0.0       0.0       0.0
      8340      8339         0         0       0.0       0.0       0.0       0.0
      8596      8595         0         0       0.0       0.0       0.0       0.0
      8341      8340         0         0       0.0       0.0       0.0       0.0
      8597      8596         0         0       0.0       0.0       0.0       0.0
      8342      8341         0         0       0.0       0.0       0.0       0.0
      8598      8597         0         0       0.0       0.0       0.0       0.0
      8343      8342         0         0       0.0       0.0       0.0       0.0
      8599      8598         0         0       0.0       0.0       0.0       0.0
      8344      8343         0         0       0.0       0.0       0.0       0.0
      8600      8599         0         0       0.0       0.0       0.0       0.0
      8345      8344         0         0       0.0       0.0       0.0       0.0
      8601      8600         0         0       0.0       0.0       0.0       0.0
      8346      8345         0         0       0.0       0.0       0.0       0.0
      8602      8601         0         0       0.0       0.0       0.0       0.0
      8347      8346         0         0       0.0       0.0       0.0       0.0
      8348      8347         0         0       0.0       0.0       0.0       0.0
      8349      8348         0         0       0.0       0.0       0.0       0.0
      8350      8349         0         0       0.0       0.0       0.0       0.0
      8351      8350         0         0       0.0       0.0       0.0       0.0
      8352      8351         0         0       0.0       0.0       0.0       0.0
      8353      8352         0         0       0.0       0.0       0.0       0.0
      8354      8353         0         0       0.0       0.0       0.0       0.0
      8355      8354         0         0       0.0       0.0       0.0       0.0
      8356      8355         0         0       0.0       0.0       0.0       0.0
      8357      8356         0         0       0.0       0.0       0.0       0.0
      8358      8357         0         0       0.0       0.0       0.0       0.0
      8359      8358         0         0       0.0       0.0       0.0       0.0
      8360      8359         0         0       0.0       0.0       0.0       0.0
      8361      8360         0         0       0.0       0.0       0.0       0.0
      8362      8361         0         0       0.0       0.0       0.0       0.0
      8363      8362         0         0       0.0       0.0       0.0       0.0
      8364      8363         0         0       0.0       0.0       0.0       0.0
      8365      8364         0         0       0.0       0.0       0.0       0.0
      8366      8365         0         0       0.0       0.0       0.0       0.0
      8367      8366         0         0       0.0       0.0       0.0       0.0
      8368      8367         0         0       0.0       0.0       0.0       0.0
      8369      8368         0         0       0.0       0.0       0.0       0.0
      8370      8369         0         0       0.0       0.0       0.0       0.0
      8371      8370         0         0       0.0       0.0       0.0       0.0
      8372      8371         0         0       0.0       0.0       0.0       0.0
      8373      8372         0         0       0.0       0.0       0.0       0.0
      8374      8373         0         0       0.0       0.0       0.0       0.0
      8375      8374         0         0       0.0       0.0       0.0       0.0
      8376      8375         0         0       0.0       0.0       0.0       0.0
      8377      8376         0         0       0.0       0.0       0.0       0.0
      8378      8377         0         0       0.0       0.0       0.0       0.0
      8379      8378         0         0       0.0       0.0       0.0       0.0
      8380      8379         0         0       0.0       0.0       0.0       0.0
      8381      8380         0         0       0.0       0.0       0.0       0.0
      8382      8381         0         0       0.0       0.0       0.0       0.0
      8383      8382         0         0       0.0       0.0       0.0       0.0
      8384      8383         0         0       0.0       0.0       0.0       0.0
      8385      8384         0         0       0.0       0.0       0.0       0.0
      8386      8385         0         0       0.0       0.0       0.0       0.0
      8387      8386         0         0       0.0       0.0       0.0       0.0
      8388      8387         0         0       0.0       0.0       0.0       0.0
      8389      8388         0         0       0.0       0.0       0.0       0.0
      8390      8389         0         0       0.0       0.0       0.0       0.0
      8391      8390         0         0       0.0       0.0       0.0       0.0
      8392      8391         0         0       0.0       0.0       0.0       0.0
      8393      8392         0         0       0.0       0.0       0.0       0.0
      8394      8393         0         0       0.0       0.0       0.0       0.0
      8395      8394         0         0       0.0       0.0       0.0       0.0
      8396      8395         0         0       0.0       0.0       0.0       0.0
      8397      8396         0         0       0.0       0.0       0.0       0.0
      8398      8397         0         0       0.0       0.0       0.0       0.0
      8399      8398         0         0       0.0       0.0       0.0       0.0
      8400      8399         0         0       0.0       0.0       0.0       0.0
      8401      8400         0         0       0.0       0.0       0.0       0.0
      8402      8401         0         0       0.0       0.0       0.0       0.0
      8403      8402         0         0       0.0       0.0       0.0       0.0
      8404      8403         0         0       0.0       0.0       0.0       0.0
      8405      8404         0         0       0.0       0.0       0.0       0.0
      8406      8405         0         0       0.0       0.0       0.0       0.0
      8407      8406         0         0       0.0       0.0       0.0       0.0
      8408      8407         0         0       0.0       0.0       0.0       0.0
      8409      8408         0         0       0.0       0.0       0.0       0.0
      8410      8409         0         0       0.0       0.0       0.0       0.0
      8411      8410         0         0       0.0       0.0       0.0       0.0
      8412      8411         0         0       0.0       0.0       0.0       0.0
      8413      8412         0         0       0.0       0.0       0.0       0.0
      8414      8413         0         0       0.0       0.0       0.0       0.0
      8415      8414         0         0       0.0       0.0       0.0       0.0
      8416      8415         0         0       0.0       0.0       0.0       0.0
      8417      8416         0         0       0.0       0.0       0.0       0.0
      8418      8417         0         0       0.0       0.0       0.0       0.0
      8419      8418         0         0       0.0       0.0       0.0       0.0
      8420      8419         0         0       0.0       0.0       0.0       0.0
      8421      8420         0         0       0.0       0.0       0.0       0.0
      8422      8421         0         0       0.0       0.0       0.0       0.0
      8423      8422         0         0       0.0       0.0       0.0       0.0
      8424      8423         0         0       0.0       0.0       0.0       0.0
      8425      8424         0         0       0.0       0.0       0.0       0.0
      8426      8425         0         0       0.0       0.0       0.0       0.0
      8427      8426         0         0       0.0       0.0       0.0       0.0
      8428      8427         0         0       0.0       0.0       0.0       0.0
      8429      8428         0         0       0.0       0.0       0.0       0.0
      8430      8429         0         0       0.0       0.0       0.0       0.0
      8431      8430         0         0       0.0       0.0       0.0       0.0
      8432      8431         0         0       0.0       0.0       0.0       0.0
      8433      8432         0         0       0.0       0.0       0.0       0.0
      8434      8433         0         0       0.0       0.0       0.0       0.0
      8435      8434         0         0       0.0       0.0       0.0       0.0
      8436      8435         0         0       0.0       0.0       0.0       0.0
      8437      8436         0         0       0.0       0.0       0.0       0.0
      8438      8437         0         0       0.0       0.0       0.0       0.0
      8439      8438         0         0       0.0       0.0       0.0       0.0
      8440      8439         0         0       0.0       0.0       0.0       0.0
      8441      8440         0         0       0.0       0.0       0.0       0.0
      8442      8441         0         0       0.0       0.0       0.0       0.0
      8443      8442         0         0       0.0       0.0       0.0       0.0
      8444      8443         0         0       0.0       0.0       0.0       0.0
      8445      8444         0         0       0.0       0.0       0.0       0.0
      8446      8445         0         0       0.0       0.0       0.0       0.0
      8447      8446         0         0       0.0       0.0       0.0       0.0
      8448      8447         0         0       0.0       0.0       0.0       0.0
      8449      8448         0         0       0.0       0.0       0.0       0.0
      8450      8449         0         0       0.0       0.0       0.0       0.0
      8451      8450         0         0       0.0       0.0       0.0       0.0
      8452      8451         0         0       0.0       0.0       0.0       0.0
      8453      8452         0         0       0.0       0.0       0.0       0.0
      8454      8453         0         0       0.0       0.0       0.0       0.0
      8455      8454         0         0       0.0       0.0       0.0       0.0
      8456      8455         0         0       0.0       0.0       0.0       0.0
      8457      8456         0         0       0.0       0.0       0.0       0.0
      8458      8457         0         0       0.0       0.0       0.0       0.0
      8459      8458         0         0       0.0       0.0       0.0       0.0
      8460      8459         0         0       0.0       0.0       0.0       0.0
      8461      8460         0         0       0.0       0.0       0.0       0.0
      8462      8461         0         0       0.0       0.0       0.0       0.0
      8463      8462         0         0       0.0       0.0       0.0       0.0
      8464      8463         0         0       0.0       0.0       0.0       0.0
      8465      8464         0         0       0.0       0.0       0.0       0.0
      8466      8465         0         0       0.0       0.0       0.0       0.0
      8467      8466         0         0       0.0       0.0       0.0       0.0
      8468      8467         0         0       0.0       0.0       0.0       0.0
      8469      8468         0         0       0.0       0.0       0.0       0.0
      8470      8469         0         0       0.0       0.0       0.0       0.0
      8471      8470         0         0       0.0       0.0       0.0       0.0
      8472      8471         0         0       0.0       0.0       0.0       0.0
      8473      8472         0         0       0.0       0.0       0.0       0.0
      8474      8473         0         0       0.0       0.0       0.0       0.0
      8475      8474         0         0       0.0       0.0       0.0       0.0
      8476      8475         0         0       0.0       0.0       0.0       0.0
      8477      8476         0         0       0.0       0.0       0.0       0.0
      8478      8477         0         0       0.0       0.0       0.0       0.0
      8479      8478         0         0       0.0       0.0       0.0       0.0
      8480      8479         0         0       0.0       0.0       0.0       0.0
      8481      8480         0         0       0.0       0.0       0.0       0.0
      8482      8481         0         0       0.0       0.0       0.0       0.0
      8483      8482         0         0       0.0       0.0       0.0       0.0
      8484      8483         0         0       0.0       0.0       0.0       0.0
      8485      8484         0         0       0.0       0.0       0.0       0.0
      8486      8485         0         0       0.0       0.0       0.0       0.0
      8487      8486         0         0       0.0       0.0       0.0       0.0
      8488      8487         0         0       0.0       0.0       0.0       0.0
      8489      8488         0         0       0.0       0.0       0.0       0.0
      8490      8489         0         0       0.0       0.0       0.0       0.0
      8491      8490         0         0       0.0       0.0       0.0       0.0
      8492      8491         0         0       0.0       0.0       0.0       0.0
      8493      8492         0         0       0.0       0.0       0.0       0.0
      8494      8493         0         0       0.0       0.0       0.0       0.0
      8495      8494         0         0       0.0       0.0       0.0       0.0
      8496      8495         0         0       0.0       0.0       0.0       0.0
      8497      8496         0         0       0.0       0.0       0.0       0.0
      8498      8497         0         0       0.0       0.0       0.0       0.0
      8499      8498         0         0       0.0       0.0       0.0       0.0
      8500      8499         0         0       0.0       0.0       0.0       0.0
      8501      8500         0         0       0.0       0.0       0.0       0.0
      8502      8501         0         0       0.0       0.0       0.0       0.0
      8503      8502         0         0       0.0       0.0       0.0       0.0
      8504      8503         0         0       0.0       0.0       0.0       0.0
      8505      8504         0         0       0.0       0.0       0.0       0.0
      8506      8505         0         0       0.0       0.0       0.0       0.0
      8507      8506         0         0       0.0       0.0       0.0       0.0
      8508      8507         0         0       0.0       0.0       0.0       0.0
      8509      8508         0         0       0.0       0.0       0.0       0.0
      8510      8509         0         0       0.0       0.0       0.0       0.0
      8511      8510         0         0       0.0       0.0       0.0       0.0
      8512      8511         0         0       0.0       0.0       0.0       0.0
      8513      8512         0         0       0.0       0.0       0.0       0.0
      8514      8513         0         0       0.0       0.0       0.0       0.0
      8515      8514         0         0       0.0       0.0       0.0       0.0
      8516      8515         0         0       0.0       0.0       0.0       0.0
      8517      8516         0         0       0.0       0.0       0.0       0.0
      8518      8517         0         0       0.0       0.0       0.0       0.0
      8519      8518         0         0       0.0       0.0       0.0       0.0
      8520      8519         0         0       0.0       0.0       0.0       0.0
      8521      8520         0         0       0.0       0.0       0.0       0.0
      8522      8521         0         0       0.0       0.0       0.0       0.0
      8523      8522         0         0       0.0       0.0       0.0       0.0
      8524      8523         0         0       0.0       0.0       0.0       0.0
      8525      8524         0         0       0.0       0.0       0.0       0.0
      8526      8525         0         0       0.0       0.0       0.0       0.0
      8527      8526         0         0       0.0       0.0       0.0       0.0
      8528      8527         0         0       0.0       0.0       0.0       0.0
      8529      8528         0         0       0.0       0.0       0.0       0.0
      8530      8529         0         0       0.0       0.0       0.0       0.0
      8531      8530         0         0       0.0       0.0       0.0       0.0
      8532      8531         0         0       0.0       0.0       0.0       0.0
      8533      8532         0         0       0.0       0.0       0.0       0.0
      8534      8533         0         0       0.0       0.0       0.0       0.0
      8535      8534         0         0       0.0       0.0       0.0       0.0
      8536      8535         0         0       0.0       0.0       0.0       0.0
      8537      8536         0         0       0.0       0.0       0.0       0.0
      8538      8537         0         0       0.0       0.0       0.0       0.0
      8539      8538         0         0       0.0       0.0       0.0       0.0
      8540      8539         0         0       0.0       0.0       0.0       0.0
      8541      8540         0         0       0.0       0.0       0.0       0.0
      8542      8541         0         0       0.0       0.0       0.0       0.0
      8543      8542         0         0       0.0       0.0       0.0       0.0
      8544      8543         0         0       0.0       0.0       0.0       0.0
      8545      8544         0         0       0.0       0.0       0.0       0.0
      8546      8545         0         0       0.0       0.0       0.0       0.0
      8547      8546         0         0       0.0       0.0       0.0       0.0
      8548      8547         0         0       0.0       0.0       0.0       0.0
      8293      8292         0         0       0.0       0.0       0.0       0.0
      8549      8548         0         0       0.0       0.0       0.0       0.0
      8294      8293         0         0       0.0       0.0       0.0       0.0
      8550      8549         0         0       0.0       0.0       0.0       0.0
      8295      8294         0         0       0.0       0.0       0.0       0.0
      8551      8550         0         0       0.0       0.0       0.0       0.0
      8296      8295         0         0       0.0       0.0       0.0       0.0
*END
