$# LS-DYNA Keyword file created by LS-PrePost(R) V4.8.30 - 20Apr2022
$# Created on Jul-18-2024 (13:07:53)
*KEYWORD   
*ELEMENT_SHELL
$#   eid     pid      n1      n2      n3      n4      n5      n6      n7      n8
       1       1       1       2      23      22       0       0       0       0
       2       1       2       3      24      23       0       0       0       0
       3       1       3       4      25      24       0       0       0       0
       4       1       4       5      26      25       0       0       0       0
       5       1       5       6      27      26       0       0       0       0
       6       1       6       7      28      27       0       0       0       0
       7       1       7       8      29      28       0       0       0       0
       8       1       8       9      30      29       0       0       0       0
       9       1       9      10      31      30       0       0       0       0
      10       1      10      11      32      31       0       0       0       0
      11       1      11      12      33      32       0       0       0       0
      12       1      12      13      34      33       0       0       0       0
      13       1      13      14      35      34       0       0       0       0
      14       1      14      15      36      35       0       0       0       0
      15       1      15      16      37      36       0       0       0       0
      16       1      16      17      38      37       0       0       0       0
      17       1      17      18      39      38       0       0       0       0
      18       1      18      19      40      39       0       0       0       0
      19       1      19      20      41      40       0       0       0       0
      20       1      20      21      42      41       0       0       0       0
      21       1      22      23      44      43       0       0       0       0
      22       1      23      24      45      44       0       0       0       0
      23       1      24      25      46      45       0       0       0       0
      24       1      25      26      47      46       0       0       0       0
      25       1      26      27      48      47       0       0       0       0
      26       1      27      28      49      48       0       0       0       0
      27       1      28      29      50      49       0       0       0       0
      28       1      29      30      51      50       0       0       0       0
      29       1      30      31      52      51       0       0       0       0
      30       1      31      32      53      52       0       0       0       0
      31       1      32      33      54      53       0       0       0       0
      32       1      33      34      55      54       0       0       0       0
      33       1      34      35      56      55       0       0       0       0
      34       1      35      36      57      56       0       0       0       0
      35       1      36      37      58      57       0       0       0       0
      36       1      37      38      59      58       0       0       0       0
      37       1      38      39      60      59       0       0       0       0
      38       1      39      40      61      60       0       0       0       0
      39       1      40      41      62      61       0       0       0       0
      40       1      41      42      63      62       0       0       0       0
      41       1      43      44      65      64       0       0       0       0
      42       1      44      45      66      65       0       0       0       0
      43       1      45      46      67      66       0       0       0       0
      44       1      46      47      68      67       0       0       0       0
      45       1      47      48      69      68       0       0       0       0
      46       1      48      49      70      69       0       0       0       0
      47       1      49      50      71      70       0       0       0       0
      48       1      50      51      72      71       0       0       0       0
      49       1      51      52      73      72       0       0       0       0
      50       1      52      53      74      73       0       0       0       0
      51       1      53      54      75      74       0       0       0       0
      52       1      54      55      76      75       0       0       0       0
      53       1      55      56      77      76       0       0       0       0
      54       1      56      57      78      77       0       0       0       0
      55       1      57      58      79      78       0       0       0       0
      56       1      58      59      80      79       0       0       0       0
      57       1      59      60      81      80       0       0       0       0
      58       1      60      61      82      81       0       0       0       0
      59       1      61      62      83      82       0       0       0       0
      60       1      62      63      84      83       0       0       0       0
      61       1      64      65      86      85       0       0       0       0
      62       1      65      66      87      86       0       0       0       0
      63       1      66      67      88      87       0       0       0       0
      64       1      67      68      89      88       0       0       0       0
      65       1      68      69      90      89       0       0       0       0
      66       1      69      70      91      90       0       0       0       0
      67       1      70      71      92      91       0       0       0       0
      68       1      71      72      93      92       0       0       0       0
      69       1      72      73      94      93       0       0       0       0
      70       1      73      74      95      94       0       0       0       0
      71       1      74      75      96      95       0       0       0       0
      72       1      75      76      97      96       0       0       0       0
      73       1      76      77      98      97       0       0       0       0
      74       1      77      78      99      98       0       0       0       0
      75       1      78      79     100      99       0       0       0       0
      76       1      79      80     101     100       0       0       0       0
      77       1      80      81     102     101       0       0       0       0
      78       1      81      82     103     102       0       0       0       0
      79       1      82      83     104     103       0       0       0       0
      80       1      83      84     105     104       0       0       0       0
      81       1      85      86     107     106       0       0       0       0
      82       1      86      87     108     107       0       0       0       0
      83       1      87      88     109     108       0       0       0       0
      84       1      88      89     110     109       0       0       0       0
      85       1      89      90     111     110       0       0       0       0
      86       1      90      91     112     111       0       0       0       0
      87       1      91      92     113     112       0       0       0       0
      88       1      92      93     114     113       0       0       0       0
      89       1      93      94     115     114       0       0       0       0
      90       1      94      95     116     115       0       0       0       0
      91       1      95      96     117     116       0       0       0       0
      92       1      96      97     118     117       0       0       0       0
      93       1      97      98     119     118       0       0       0       0
      94       1      98      99     120     119       0       0       0       0
      95       1      99     100     121     120       0       0       0       0
      96       1     100     101     122     121       0       0       0       0
      97       1     101     102     123     122       0       0       0       0
      98       1     102     103     124     123       0       0       0       0
      99       1     103     104     125     124       0       0       0       0
     100       1     104     105     126     125       0       0       0       0
     101       1     106     107     128     127       0       0       0       0
     102       1     107     108     129     128       0       0       0       0
     103       1     108     109     130     129       0       0       0       0
     104       1     109     110     131     130       0       0       0       0
     105       1     110     111     132     131       0       0       0       0
     106       1     111     112     133     132       0       0       0       0
     107       1     112     113     134     133       0       0       0       0
     108       1     113     114     135     134       0       0       0       0
     109       1     114     115     136     135       0       0       0       0
     110       1     115     116     137     136       0       0       0       0
     111       1     116     117     138     137       0       0       0       0
     112       1     117     118     139     138       0       0       0       0
     113       1     118     119     140     139       0       0       0       0
     114       1     119     120     141     140       0       0       0       0
     115       1     120     121     142     141       0       0       0       0
     116       1     121     122     143     142       0       0       0       0
     117       1     122     123     144     143       0       0       0       0
     118       1     123     124     145     144       0       0       0       0
     119       1     124     125     146     145       0       0       0       0
     120       1     125     126     147     146       0       0       0       0
     121       1     127     128     149     148       0       0       0       0
     122       1     128     129     150     149       0       0       0       0
     123       1     129     130     151     150       0       0       0       0
     124       1     130     131     152     151       0       0       0       0
     125       1     131     132     153     152       0       0       0       0
     126       1     132     133     154     153       0       0       0       0
     127       1     133     134     155     154       0       0       0       0
     128       1     134     135     156     155       0       0       0       0
     129       1     135     136     157     156       0       0       0       0
     130       1     136     137     158     157       0       0       0       0
     131       1     137     138     159     158       0       0       0       0
     132       1     138     139     160     159       0       0       0       0
     133       1     139     140     161     160       0       0       0       0
     134       1     140     141     162     161       0       0       0       0
     135       1     141     142     163     162       0       0       0       0
     136       1     142     143     164     163       0       0       0       0
     137       1     143     144     165     164       0       0       0       0
     138       1     144     145     166     165       0       0       0       0
     139       1     145     146     167     166       0       0       0       0
     140       1     146     147     168     167       0       0       0       0
     141       1     148     149     170     169       0       0       0       0
     142       1     149     150     171     170       0       0       0       0
     143       1     150     151     172     171       0       0       0       0
     144       1     151     152     173     172       0       0       0       0
     145       1     152     153     174     173       0       0       0       0
     146       1     153     154     175     174       0       0       0       0
     147       1     154     155     176     175       0       0       0       0
     148       1     155     156     177     176       0       0       0       0
     149       1     156     157     178     177       0       0       0       0
     150       1     157     158     179     178       0       0       0       0
     151       1     158     159     180     179       0       0       0       0
     152       1     159     160     181     180       0       0       0       0
     153       1     160     161     182     181       0       0       0       0
     154       1     161     162     183     182       0       0       0       0
     155       1     162     163     184     183       0       0       0       0
     156       1     163     164     185     184       0       0       0       0
     157       1     164     165     186     185       0       0       0       0
     158       1     165     166     187     186       0       0       0       0
     159       1     166     167     188     187       0       0       0       0
     160       1     167     168     189     188       0       0       0       0
     161       1     169     170     191     190       0       0       0       0
     162       1     170     171     192     191       0       0       0       0
     163       1     171     172     193     192       0       0       0       0
     164       1     172     173     194     193       0       0       0       0
     165       1     173     174     195     194       0       0       0       0
     166       1     174     175     196     195       0       0       0       0
     167       1     175     176     197     196       0       0       0       0
     168       1     176     177     198     197       0       0       0       0
     169       1     177     178     199     198       0       0       0       0
     170       1     178     179     200     199       0       0       0       0
     171       1     179     180     201     200       0       0       0       0
     172       1     180     181     202     201       0       0       0       0
     173       1     181     182     203     202       0       0       0       0
     174       1     182     183     204     203       0       0       0       0
     175       1     183     184     205     204       0       0       0       0
     176       1     184     185     206     205       0       0       0       0
     177       1     185     186     207     206       0       0       0       0
     178       1     186     187     208     207       0       0       0       0
     179       1     187     188     209     208       0       0       0       0
     180       1     188     189     210     209       0       0       0       0
     181       1     190     191     212     211       0       0       0       0
     182       1     191     192     213     212       0       0       0       0
     183       1     192     193     214     213       0       0       0       0
     184       1     193     194     215     214       0       0       0       0
     185       1     194     195     216     215       0       0       0       0
     186       1     195     196     217     216       0       0       0       0
     187       1     196     197     218     217       0       0       0       0
     188       1     197     198     219     218       0       0       0       0
     189       1     198     199     220     219       0       0       0       0
     190       1     199     200     221     220       0       0       0       0
     191       1     200     201     222     221       0       0       0       0
     192       1     201     202     223     222       0       0       0       0
     193       1     202     203     224     223       0       0       0       0
     194       1     203     204     225     224       0       0       0       0
     195       1     204     205     226     225       0       0       0       0
     196       1     205     206     227     226       0       0       0       0
     197       1     206     207     228     227       0       0       0       0
     198       1     207     208     229     228       0       0       0       0
     199       1     208     209     230     229       0       0       0       0
     200       1     209     210     231     230       0       0       0       0
     201       1     211     212     233     232       0       0       0       0
     202       1     212     213     234     233       0       0       0       0
     203       1     213     214     235     234       0       0       0       0
     204       1     214     215     236     235       0       0       0       0
     205       1     215     216     237     236       0       0       0       0
     206       1     216     217     238     237       0       0       0       0
     207       1     217     218     239     238       0       0       0       0
     208       1     218     219     240     239       0       0       0       0
     209       1     219     220     241     240       0       0       0       0
     210       1     220     221     242     241       0       0       0       0
     211       1     221     222     243     242       0       0       0       0
     212       1     222     223     244     243       0       0       0       0
     213       1     223     224     245     244       0       0       0       0
     214       1     224     225     246     245       0       0       0       0
     215       1     225     226     247     246       0       0       0       0
     216       1     226     227     248     247       0       0       0       0
     217       1     227     228     249     248       0       0       0       0
     218       1     228     229     250     249       0       0       0       0
     219       1     229     230     251     250       0       0       0       0
     220       1     230     231     252     251       0       0       0       0
     221       1     232     233     254     253       0       0       0       0
     222       1     233     234     255     254       0       0       0       0
     223       1     234     235     256     255       0       0       0       0
     224       1     235     236     257     256       0       0       0       0
     225       1     236     237     258     257       0       0       0       0
     226       1     237     238     259     258       0       0       0       0
     227       1     238     239     260     259       0       0       0       0
     228       1     239     240     261     260       0       0       0       0
     229       1     240     241     262     261       0       0       0       0
     230       1     241     242     263     262       0       0       0       0
     231       1     242     243     264     263       0       0       0       0
     232       1     243     244     265     264       0       0       0       0
     233       1     244     245     266     265       0       0       0       0
     234       1     245     246     267     266       0       0       0       0
     235       1     246     247     268     267       0       0       0       0
     236       1     247     248     269     268       0       0       0       0
     237       1     248     249     270     269       0       0       0       0
     238       1     249     250     271     270       0       0       0       0
     239       1     250     251     272     271       0       0       0       0
     240       1     251     252     273     272       0       0       0       0
     241       1     274     275     282     281       0       0       0       0
     242       1     275     276     283     282       0       0       0       0
     243       1     276     277     284     283       0       0       0       0
     244       1     277     278     285     284       0       0       0       0
     245       1     278     279     286     285       0       0       0       0
     246       1     279       1      22     286       0       0       0       0
     247       1     281     282     289     288       0       0       0       0
     248       1     282     283     290     289       0       0       0       0
     249       1     283     284     291     290       0       0       0       0
     250       1     284     285     292     291       0       0       0       0
     251       1     285     286     293     292       0       0       0       0
     252       1     286      22      43     293       0       0       0       0
     253       1     288     289     296     295       0       0       0       0
     254       1     289     290     297     296       0       0       0       0
     255       1     290     291     298     297       0       0       0       0
     256       1     291     292     299     298       0       0       0       0
     257       1     292     293     300     299       0       0       0       0
     258       1     293      43      64     300       0       0       0       0
     259       1     295     296     303     302       0       0       0       0
     260       1     296     297     304     303       0       0       0       0
     261       1     297     298     305     304       0       0       0       0
     262       1     298     299     306     305       0       0       0       0
     263       1     299     300     307     306       0       0       0       0
     264       1     300      64      85     307       0       0       0       0
     265       1     302     303     310     309       0       0       0       0
     266       1     303     304     311     310       0       0       0       0
     267       1     304     305     312     311       0       0       0       0
     268       1     305     306     313     312       0       0       0       0
     269       1     306     307     314     313       0       0       0       0
     270       1     307      85     106     314       0       0       0       0
     271       1     309     310     317     316       0       0       0       0
     272       1     310     311     318     317       0       0       0       0
     273       1     311     312     319     318       0       0       0       0
     274       1     312     313     320     319       0       0       0       0
     275       1     313     314     321     320       0       0       0       0
     276       1     314     106     127     321       0       0       0       0
     277       1     316     317     324     323       0       0       0       0
     278       1     317     318     325     324       0       0       0       0
     279       1     318     319     326     325       0       0       0       0
     280       1     319     320     327     326       0       0       0       0
     281       1     320     321     328     327       0       0       0       0
     282       1     321     127     148     328       0       0       0       0
     283       1     323     324     331     330       0       0       0       0
     284       1     324     325     332     331       0       0       0       0
     285       1     325     326     333     332       0       0       0       0
     286       1     326     327     334     333       0       0       0       0
     287       1     327     328     335     334       0       0       0       0
     288       1     328     148     169     335       0       0       0       0
     289       1     330     331     338     337       0       0       0       0
     290       1     331     332     339     338       0       0       0       0
     291       1     332     333     340     339       0       0       0       0
     292       1     333     334     341     340       0       0       0       0
     293       1     334     335     342     341       0       0       0       0
     294       1     335     169     190     342       0       0       0       0
     295       1     337     338     345     344       0       0       0       0
     296       1     338     339     346     345       0       0       0       0
     297       1     339     340     347     346       0       0       0       0
     298       1     340     341     348     347       0       0       0       0
     299       1     341     342     349     348       0       0       0       0
     300       1     342     190     211     349       0       0       0       0
     301       1     344     345     352     351       0       0       0       0
     302       1     345     346     353     352       0       0       0       0
     303       1     346     347     354     353       0       0       0       0
     304       1     347     348     355     354       0       0       0       0
     305       1     348     349     356     355       0       0       0       0
     306       1     349     211     232     356       0       0       0       0
     307       1     351     352     359     358       0       0       0       0
     308       1     352     353     360     359       0       0       0       0
     309       1     353     354     361     360       0       0       0       0
     310       1     354     355     362     361       0       0       0       0
     311       1     355     356     363     362       0       0       0       0
     312       1     356     232     253     363       0       0       0       0
*NODE
$#   nid               x               y               z      tc      rc  
       1             0.0          6.6675             0.0       0       0
       2             0.0        6.111875             0.0       0       0
       3             0.0        5.579645             0.0       0       0
       4             0.0        5.070809             0.0       0       0
       5             0.0        4.585368             0.0       0       0
       6             0.0        4.123322             0.0       0       0
       7             0.0        3.684671             0.0       0       0
       8             0.0        3.269414             0.0       0       0
       9             0.0        2.877553             0.0       0       0
      10             0.0        2.509085             0.0       0       0
      11             0.0        2.164013             0.0       0       0
      12             0.0        1.842335             0.0       0       0
      13             0.0        1.544052             0.0       0       0
      14             0.0        1.269164             0.0       0       0
      15             0.0        1.017671             0.0       0       0
      16             0.0       0.7895718             0.0       0       0
      17             0.0        0.584868             0.0       0       0
      18             0.0       0.4035587             0.0       0       0
      19             0.0       0.2456441             0.0       0       0
      20             0.0       0.1111245             0.0       0       0
      21             0.0             0.0             0.0       0       0
      22       0.5305209          6.6675             0.0       0       0
      23        0.530408        6.111876             0.0       0       0
      24       0.5302998        5.579644             0.0       0       0
      25       0.5301965         5.07081             0.0       0       0
      26        0.530098        4.585369             0.0       0       0
      27       0.5300041        4.123322             0.0       0       0
      28       0.5299151        3.684671             0.0       0       0
      29       0.5298307        3.269414             0.0       0       0
      30       0.5297511        2.877553             0.0       0       0
      31       0.5296763        2.509085             0.0       0       0
      32       0.5296062        2.164013             0.0       0       0
      33       0.5295409        1.842335             0.0       0       0
      34       0.5294803        1.544052             0.0       0       0
      35       0.5294244        1.269164             0.0       0       0
      36       0.5293734        1.017671             0.0       0       0
      37        0.529327       0.7895718             0.0       0       0
      38       0.5292854        0.584868             0.0       0       0
      39       0.5292486       0.4035588             0.0       0       0
      40       0.5292165       0.2456442             0.0       0       0
      41       0.5291892       0.1111246             0.0       0       0
      42       0.5291666             0.0             0.0       0       0
      43        1.061041          6.6675             0.0       0       0
      44        1.060815        6.111876             0.0       0       0
      45        1.060599        5.579646             0.0       0       0
      46        1.060393        5.070809             0.0       0       0
      47        1.060196        4.585368             0.0       0       0
      48        1.060008        4.123322             0.0       0       0
      49         1.05983        3.684671             0.0       0       0
      50        1.059661        3.269414             0.0       0       0
      51        1.059502        2.877553             0.0       0       0
      52        1.059352        2.509085             0.0       0       0
      53        1.059212        2.164013             0.0       0       0
      54        1.059082        1.842335             0.0       0       0
      55         1.05896        1.544052             0.0       0       0
      56        1.058849        1.269164             0.0       0       0
      57        1.058747        1.017671             0.0       0       0
      58        1.058654       0.7895719             0.0       0       0
      59        1.058571        0.584868             0.0       0       0
      60        1.058497       0.4035589             0.0       0       0
      61        1.058433       0.2456442             0.0       0       0
      62        1.058378       0.1111246             0.0       0       0
      63        1.058333             0.0             0.0       0       0
      64        1.591562          6.6675             0.0       0       0
      65        1.591224        6.111875             0.0       0       0
      66        1.590899        5.579643             0.0       0       0
      67         1.59059        5.070808             0.0       0       0
      68        1.590294        4.585368             0.0       0       0
      69        1.590012        4.123322             0.0       0       0
      70        1.589745        3.684671             0.0       0       0
      71        1.589492        3.269414             0.0       0       0
      72        1.589253        2.877553             0.0       0       0
      73        1.589028        2.509085             0.0       0       0
      74        1.588819        2.164013             0.0       0       0
      75        1.588622        1.842336             0.0       0       0
      76        1.588441        1.544052             0.0       0       0
      77        1.588273        1.269164             0.0       0       0
      78         1.58812        1.017671             0.0       0       0
      79        1.587981        0.789572             0.0       0       0
      80        1.587856       0.5848681             0.0       0       0
      81        1.587746       0.4035589             0.0       0       0
      82         1.58765       0.2456442             0.0       0       0
      83        1.587567       0.1111246             0.0       0       0
      84          1.5875             0.0             0.0       0       0
      85        2.122083          6.6675             0.0       0       0
      86        2.121632        6.111875             0.0       0       0
      87        2.121199        5.579645             0.0       0       0
      88        2.120786        5.070809             0.0       0       0
      89        2.120392        4.585368             0.0       0       0
      90        2.120017        4.123322             0.0       0       0
      91        2.119659        3.684671             0.0       0       0
      92        2.119323        3.269415             0.0       0       0
      93        2.119004        2.877553             0.0       0       0
      94        2.118705        2.509086             0.0       0       0
      95        2.118424        2.164013             0.0       0       0
      96        2.118163        1.842336             0.0       0       0
      97        2.117921        1.544052             0.0       0       0
      98        2.117698        1.269164             0.0       0       0
      99        2.117494        1.017671             0.0       0       0
     100        2.117308       0.7895721             0.0       0       0
     101        2.117141       0.5848681             0.0       0       0
     102        2.116994       0.4035589             0.0       0       0
     103        2.116866       0.2456442             0.0       0       0
     104        2.116757       0.1111247             0.0       0       0
     105        2.116667             0.0             0.0       0       0
     106        2.652604          6.6675             0.0       0       0
     107         2.65204        6.111875             0.0       0       0
     108        2.651499        5.579644             0.0       0       0
     109        2.650982        5.070808             0.0       0       0
     110         2.65049        4.585368             0.0       0       0
     111         2.65002        4.123322             0.0       0       0
     112        2.649575        3.684671             0.0       0       0
     113        2.649153        3.269414             0.0       0       0
     114        2.648756        2.877552             0.0       0       0
     115        2.648381        2.509085             0.0       0       0
     116        2.648031        2.164013             0.0       0       0
     117        2.647704        1.842335             0.0       0       0
     118        2.647401        1.544052             0.0       0       0
     119        2.647122        1.269164             0.0       0       0
     120        2.646867        1.017671             0.0       0       0
     121        2.646635       0.7895721             0.0       0       0
     122        2.646427       0.5848682             0.0       0       0
     123        2.646243        0.403559             0.0       0       0
     124        2.646083       0.2456443             0.0       0       0
     125        2.645946       0.1111247             0.0       0       0
     126        2.645833             0.0             0.0       0       0
     127        3.183125          6.6675             0.0       0       0
     128        3.182448        6.111875             0.0       0       0
     129        3.181799        5.579644             0.0       0       0
     130        3.181179         5.07081             0.0       0       0
     131        3.180588        4.585368             0.0       0       0
     132        3.180025        4.123322             0.0       0       0
     133         3.17949        3.684671             0.0       0       0
     134        3.178984        3.269414             0.0       0       0
     135        3.178507        2.877553             0.0       0       0
     136        3.178058        2.509085             0.0       0       0
     137        3.177637        2.164014             0.0       0       0
     138        3.177245        1.842336             0.0       0       0
     139        3.176881        1.544052             0.0       0       0
     140        3.176547        1.269164             0.0       0       0
     141         3.17624        1.017671             0.0       0       0
     142        3.175962       0.7895723             0.0       0       0
     143        3.175712       0.5848682             0.0       0       0
     144        3.175492       0.4035589             0.0       0       0
     145          3.1753       0.2456443             0.0       0       0
     146        3.175135       0.1111248             0.0       0       0
     147           3.175             0.0             0.0       0       0
     148        3.713646          6.6675             0.0       0       0
     149        3.712856        6.111874             0.0       0       0
     150          3.7121        5.579645             0.0       0       0
     151        3.711375         5.07081             0.0       0       0
     152        3.710686        4.585368             0.0       0       0
     153        3.710029        4.123322             0.0       0       0
     154        3.709405        3.684671             0.0       0       0
     155        3.708815        3.269415             0.0       0       0
     156        3.708258        2.877552             0.0       0       0
     157        3.707733        2.509085             0.0       0       0
     158        3.707243        2.164013             0.0       0       0
     159        3.706785        1.842335             0.0       0       0
     160        3.706362        1.544052             0.0       0       0
     161        3.705971        1.269165             0.0       0       0
     162        3.705613        1.017671             0.0       0       0
     163        3.705289       0.7895724             0.0       0       0
     164        3.704997       0.5848683             0.0       0       0
     165        3.704741        0.403559             0.0       0       0
     166        3.704516       0.2456444             0.0       0       0
     167        3.704324       0.1111248             0.0       0       0
     168        3.704166             0.0             0.0       0       0
     169        4.244167          6.6675             0.0       0       0
     170        4.243264        6.111874             0.0       0       0
     171        4.242399        5.579645             0.0       0       0
     172        4.241572        5.070809             0.0       0       0
     173        4.240784        4.585368             0.0       0       0
     174        4.240033        4.123322             0.0       0       0
     175         4.23932        3.684671             0.0       0       0
     176        4.238646        3.269415             0.0       0       0
     177        4.238009        2.877552             0.0       0       0
     178         4.23741        2.509085             0.0       0       0
     179         4.23685        2.164013             0.0       0       0
     180        4.236327        1.842335             0.0       0       0
     181        4.235843        1.544052             0.0       0       0
     182        4.235395        1.269165             0.0       0       0
     183        4.234987        1.017671             0.0       0       0
     184        4.234616       0.7895725             0.0       0       0
     185        4.234283       0.5848683             0.0       0       0
     186        4.233989       0.4035591             0.0       0       0
     187        4.233732       0.2456444             0.0       0       0
     188        4.233514       0.1111248             0.0       0       0
     189        4.233333             0.0             0.0       0       0
     190        4.774688          6.6675             0.0       0       0
     191        4.773673        6.111876             0.0       0       0
     192        4.772699        5.579645             0.0       0       0
     193        4.771769        5.070809             0.0       0       0
     194        4.770882        4.585367             0.0       0       0
     195        4.770037        4.123322             0.0       0       0
     196        4.769236        3.684671             0.0       0       0
     197        4.768476        3.269415             0.0       0       0
     198         4.76776        2.877552             0.0       0       0
     199        4.767086        2.509085             0.0       0       0
     200        4.766456        2.164013             0.0       0       0
     201        4.765868        1.842335             0.0       0       0
     202        4.765323        1.544052             0.0       0       0
     203         4.76482        1.269165             0.0       0       0
     204         4.76436        1.017671             0.0       0       0
     205        4.763944       0.7895725             0.0       0       0
     206        4.763569       0.5848683             0.0       0       0
     207        4.763238       0.4035591             0.0       0       0
     208        4.762949       0.2456445             0.0       0       0
     209        4.762702       0.1111249             0.0       0       0
     210          4.7625             0.0             0.0       0       0
     211        5.305209          6.6675             0.0       0       0
     212         5.30408        6.111875             0.0       0       0
     213        5.302999        5.579644             0.0       0       0
     214        5.301966         5.07081             0.0       0       0
     215         5.30098        4.585369             0.0       0       0
     216        5.300042        4.123322             0.0       0       0
     217        5.299151        3.684671             0.0       0       0
     218        5.298307        3.269415             0.0       0       0
     219        5.297512        2.877552             0.0       0       0
     220        5.296762        2.509085             0.0       0       0
     221        5.296062        2.164013             0.0       0       0
     222        5.295408        1.842336             0.0       0       0
     223        5.294803        1.544053             0.0       0       0
     224        5.294245        1.269165             0.0       0       0
     225        5.293734        1.017672             0.0       0       0
     226         5.29327       0.7895726             0.0       0       0
     227        5.292854       0.5848684             0.0       0       0
     228        5.292487       0.4035591             0.0       0       0
     229        5.292167       0.2456445             0.0       0       0
     230        5.291892       0.1111249             0.0       0       0
     231        5.291667             0.0             0.0       0       0
     232         5.83573          6.6675             0.0       0       0
     233        5.834488        6.111875             0.0       0       0
     234        5.833301        5.579644             0.0       0       0
     235        5.832162         5.07081             0.0       0       0
     236        5.831078        4.585368             0.0       0       0
     237        5.830046        4.123322             0.0       0       0
     238        5.829065        3.684671             0.0       0       0
     239        5.828137        3.269415             0.0       0       0
     240        5.827262        2.877552             0.0       0       0
     241        5.826439        2.509085             0.0       0       0
     242        5.825668        2.164013             0.0       0       0
     243         5.82495        1.842336             0.0       0       0
     244        5.824283        1.544053             0.0       0       0
     245        5.823669        1.269165             0.0       0       0
     246        5.823107        1.017672             0.0       0       0
     247        5.822597       0.7895727             0.0       0       0
     248         5.82214       0.5848684             0.0       0       0
     249        5.821734       0.4035592             0.0       0       0
     250        5.821383       0.2456446             0.0       0       0
     251         5.82108        0.111125             0.0       0       0
     252        5.820833             0.0             0.0       0       0
     253         6.36625          6.6675             0.0       0       0
     254        6.364896        6.111875             0.0       0       0
     255        6.363599        5.579645             0.0       0       0
     256        6.362359        5.070809             0.0       0       0
     257        6.361176        4.585369             0.0       0       0
     258        6.360049        4.123322             0.0       0       0
     259         6.35898        3.684671             0.0       0       0
     260        6.357968        3.269415             0.0       0       0
     261        6.357013        2.877553             0.0       0       0
     262        6.356115        2.509086             0.0       0       0
     263        6.355274        2.164014             0.0       0       0
     264         6.35449        1.842336             0.0       0       0
     265        6.353763        1.544053             0.0       0       0
     266        6.353093        1.269165             0.0       0       0
     267         6.35248        1.017672             0.0       0       0
     268        6.351924       0.7895732             0.0       0       0
     269        6.351425       0.5848689             0.0       0       0
     270        6.350984       0.4035597             0.0       0       0
     271        6.350599        0.245645             0.0       0       0
     272        6.350271       0.1111255             0.0       0       0
     273            6.35    4.768372e-07             0.0       0       0
     274             0.0           26.67             0.0       0       0
     275             0.0        23.33625             0.0       0       0
     276             0.0         20.0025             0.0       0       0
     277             0.0        16.66875             0.0       0       0
     278             0.0          13.335             0.0       0       0
     279             0.0        10.00125             0.0       0       0
     281       0.5345833           26.67             0.0       0       0
     282       0.5339062        23.33625             0.0       0       0
     283       0.5332292        20.00249             0.0       0       0
     284       0.5325521        16.66875             0.0       0       0
     285        0.531875          13.335             0.0       0       0
     286        0.531198        10.00125             0.0       0       0
     288        1.069167           26.67             0.0       0       0
     289        1.067812        23.33625             0.0       0       0
     290        1.066458         20.0025             0.0       0       0
     291        1.065104        16.66875             0.0       0       0
     292         1.06375          13.335             0.0       0       0
     293        1.062396        10.00125             0.0       0       0
     295         1.60375           26.67             0.0       0       0
     296        1.601719        23.33625             0.0       0       0
     297        1.599687         20.0025             0.0       0       0
     298        1.597656        16.66875             0.0       0       0
     299        1.595625          13.335             0.0       0       0
     300        1.593594        10.00125             0.0       0       0
     302        2.138333           26.67             0.0       0       0
     303        2.135625        23.33625             0.0       0       0
     304        2.132916         20.0025             0.0       0       0
     305        2.130208        16.66875             0.0       0       0
     306          2.1275          13.335             0.0       0       0
     307        2.124792        10.00125             0.0       0       0
     309        2.672917           26.67             0.0       0       0
     310        2.669532        23.33625             0.0       0       0
     311        2.666146         20.0025             0.0       0       0
     312         2.66276        16.66875             0.0       0       0
     313        2.659374          13.335             0.0       0       0
     314        2.655989        10.00125             0.0       0       0
     316          3.2075           26.67             0.0       0       0
     317        3.203438        23.33625             0.0       0       0
     318        3.199375         20.0025             0.0       0       0
     319        3.195313        16.66875             0.0       0       0
     320         3.19125          13.335             0.0       0       0
     321        3.187187        10.00125             0.0       0       0
     323        3.742083           26.67             0.0       0       0
     324        3.737345        23.33625             0.0       0       0
     325        3.732605         20.0025             0.0       0       0
     326        3.727865        16.66875             0.0       0       0
     327        3.723125          13.335             0.0       0       0
     328        3.718386        10.00125             0.0       0       0
     330        4.276667           26.67             0.0       0       0
     331         4.27125        23.33625             0.0       0       0
     332        4.265834         20.0025             0.0       0       0
     333        4.260417        16.66875             0.0       0       0
     334           4.255          13.335             0.0       0       0
     335        4.249583        10.00125             0.0       0       0
     337         4.81125           26.67             0.0       0       0
     338        4.805156        23.33625             0.0       0       0
     339        4.799063         20.0025             0.0       0       0
     340        4.792969        16.66875             0.0       0       0
     341        4.786876          13.335             0.0       0       0
     342        4.780781        10.00125             0.0       0       0
     344        5.345833           26.67             0.0       0       0
     345        5.339064        23.33625             0.0       0       0
     346        5.332293         20.0025             0.0       0       0
     347        5.325521        16.66875             0.0       0       0
     348         5.31875          13.335             0.0       0       0
     349         5.31198        10.00125             0.0       0       0
     351        5.880416           26.67             0.0       0       0
     352         5.87297        23.33625             0.0       0       0
     353         5.86552         20.0025             0.0       0       0
     354        5.858073        16.66875             0.0       0       0
     355        5.850625          13.335             0.0       0       0
     356        5.843178        10.00125             0.0       0       0
     358        6.414999           26.67             0.0       0       0
     359        6.406875        23.33625             0.0       0       0
     360         6.39875         20.0025             0.0       0       0
     361        6.390625        16.66875             0.0       0       0
     362          6.3825          13.335             0.0       0       0
     363        6.374375        10.00125             0.0       0       0
*SET_NODE_LIST_TITLE
NS_y+
$#     sid       da1       da2       da3       da4    solver      
         1       0.0       0.0       0.0       0.0MECH
$#    nid1      nid2      nid3      nid4      nid5      nid6      nid7      nid8
       274       281       288       295       302       309       316       323
       330       337       344       351       358         0         0         0
*END
